version 3
run Default-0-20240521-13:22:23-35892
attr configname Default
attr datetime 20240521-13:22:23
attr datetimef 20240521-132223
attr experiment Default
attr inifile omnetpp.ini
attr iterationvars ""
attr iterationvarsd ""
attr iterationvarsf ""
attr measurement ""
attr network RSUExampleScenario
attr processid 35892
attr repetition 0
attr replication #0
attr resultdir results
attr runnumber 0
attr seedset 0
config image-path ../../../../../../../omnetpp-6.0.3/workspaces/inet4.5/images;../../../../../../../veins-master/images
config cmdenv-express-mode true
config cmdenv-autoflush true
config cmdenv-status-frequency 1s
config **.cmdenv-log-level info
config image-path ../../images
config network RSUExampleScenario
config debug-on-errors true
config print-undisposed true
config sim-time-limit 210s
config **.scalar-recording true
config **.vector-recording true
config *.playgroundSizeX 2500m
config *.playgroundSizeY 2500m
config *.playgroundSizeZ 50m
config *.annotations.draw true
config *.obstacles.obstacles "xmldoc(\"config.xml\", \"//AnalogueModel[@type='SimpleObstacleShadowing']/obstacles\")"
config *.manager.updateInterval 1s
config *.manager.host "\"localhost\""
config *.manager.port 9999
config *.manager.autoShutdown true
config *.manager.launchConfig "xmldoc(\"erlangen.launchd.xml\")"
config *.manager.trafficLightModuleType "\"org.car2x.veins.nodes.TrafficLight\""
config *.tls[*].mobility.x 0
config *.tls[*].mobility.y 0
config *.tls[*].mobility.z 3
config *.tls[*].applType "\"org.car2x.veins.modules.application.traci.TraCIDemoTrafficLightApp\""
config *.tls[*].logicType "\"org.car2x.veins.modules.world.traci.trafficLight.logics.TraCITrafficLightSimpleLogic\""
config *.rsu[0].mobility.x 2000
config *.rsu[0].mobility.y 2000
config *.rsu[0].mobility.z 3
config *.rsu[*].applType "\"TraCIDemoRSU11p\""
config *.rsu[*].appl.headerLength "80 bit"
config *.rsu[*].appl.sendBeacons false
config *.rsu[*].appl.dataOnSch false
config *.rsu[*].appl.beaconInterval 1s
config *.rsu[*].appl.beaconUserPriority 7
config *.rsu[*].appl.dataUserPriority 5
config *.rsu[*].nic.phy80211p.antennaOffsetZ "0 m"
config *.cloud[0].mobility.x 1600
config *.cloud[0].mobility.y 2000
config *.cloud[0].mobility.z 3
config *.cloud[*].applType "\"TraCIDemoRSU11p\""
config *.cloud[*].appl.headerLength "80 bit"
config *.cloud[*].appl.sendBeacons false
config *.cloud[*].appl.dataOnSch false
config *.cloud[*].appl.beaconInterval 1s
config *.cloud[*].appl.beaconUserPriority 7
config *.cloud[*].appl.dataUserPriority 5
config *.cloud[*].nic.phy80211p.antennaOffsetZ "0 m"
config *.connectionManager.sendDirect true
config *.connectionManager.maxInterfDist 2600m
config *.connectionManager.drawMaxIntfDist false
config *.**.nic.mac1609_4.useServiceChannel false
config *.**.nic.mac1609_4.txPower 20mW
config *.**.nic.mac1609_4.bitrate 6Mbps
config *.**.nic.phy80211p.minPowerLevel -110dBm
config *.**.nic.phy80211p.useNoiseFloor true
config *.**.nic.phy80211p.noiseFloor -98dBm
config *.**.nic.phy80211p.decider "xmldoc(\"config.xml\")"
config *.**.nic.phy80211p.analogueModels "xmldoc(\"config.xml\")"
config *.**.nic.phy80211p.usePropagationDelay true
config *.**.nic.phy80211p.antenna "xmldoc(\"antenna.xml\", \"/root/Antenna[@id='monopole']\")"
config *.node[*].nic.phy80211p.antennaOffsetY "0 m"
config *.node[*].nic.phy80211p.antennaOffsetZ "1.895 m"
config *.node[*].applType "\"TraCIDemo11p\""
config *.node[*].appl.headerLength "80 bit"
config *.node[*].appl.sendBeacons false
config *.node[*].appl.dataOnSch false
config *.node[*].appl.beaconInterval 1s
config *.node[*].veinsmobility.x 0
config *.node[*].veinsmobility.y 0
config *.node[*].veinsmobility.z 0
config *.node[*].veinsmobility.setHostSpeed false
config *.node[*0].veinsmobility.accidentCount 1
config *.node[*0].veinsmobility.accidentStart 73s
config *.node[*0].veinsmobility.accidentDuration 30s

vector 0 RSUExampleScenario.node[0].veinsmobility posx ETV
vector 1 RSUExampleScenario.node[0].veinsmobility posy ETV
vector 2 RSUExampleScenario.node[0].veinsmobility speed ETV
vector 3 RSUExampleScenario.node[0].veinsmobility acceleration ETV
vector 4 RSUExampleScenario.node[0].veinsmobility co2emission ETV
vector 5 RSUExampleScenario.node[1].veinsmobility posx ETV
vector 6 RSUExampleScenario.node[1].veinsmobility posy ETV
vector 7 RSUExampleScenario.node[1].veinsmobility speed ETV
vector 8 RSUExampleScenario.node[1].veinsmobility acceleration ETV
vector 9 RSUExampleScenario.node[1].veinsmobility co2emission ETV
vector 10 RSUExampleScenario.node[2].veinsmobility posx ETV
vector 11 RSUExampleScenario.node[2].veinsmobility posy ETV
vector 12 RSUExampleScenario.node[2].veinsmobility speed ETV
vector 13 RSUExampleScenario.node[2].veinsmobility acceleration ETV
vector 14 RSUExampleScenario.node[2].veinsmobility co2emission ETV
vector 15 RSUExampleScenario.node[3].veinsmobility posx ETV
vector 16 RSUExampleScenario.node[3].veinsmobility posy ETV
vector 17 RSUExampleScenario.node[3].veinsmobility speed ETV
vector 18 RSUExampleScenario.node[3].veinsmobility acceleration ETV
vector 19 RSUExampleScenario.node[3].veinsmobility co2emission ETV
vector 20 RSUExampleScenario.node[4].veinsmobility posx ETV
vector 21 RSUExampleScenario.node[4].veinsmobility posy ETV
vector 22 RSUExampleScenario.node[4].veinsmobility speed ETV
vector 23 RSUExampleScenario.node[4].veinsmobility acceleration ETV
vector 24 RSUExampleScenario.node[4].veinsmobility co2emission ETV
vector 25 RSUExampleScenario.node[5].veinsmobility posx ETV
vector 26 RSUExampleScenario.node[5].veinsmobility posy ETV
vector 27 RSUExampleScenario.node[5].veinsmobility speed ETV
vector 28 RSUExampleScenario.node[5].veinsmobility acceleration ETV
vector 29 RSUExampleScenario.node[5].veinsmobility co2emission ETV
vector 30 RSUExampleScenario.node[6].veinsmobility posx ETV
vector 31 RSUExampleScenario.node[6].veinsmobility posy ETV
vector 32 RSUExampleScenario.node[6].veinsmobility speed ETV
vector 33 RSUExampleScenario.node[6].veinsmobility acceleration ETV
vector 34 RSUExampleScenario.node[6].veinsmobility co2emission ETV
vector 35 RSUExampleScenario.node[7].veinsmobility posx ETV
vector 36 RSUExampleScenario.node[7].veinsmobility posy ETV
vector 37 RSUExampleScenario.node[7].veinsmobility speed ETV
vector 38 RSUExampleScenario.node[7].veinsmobility acceleration ETV
vector 39 RSUExampleScenario.node[7].veinsmobility co2emission ETV
vector 40 RSUExampleScenario.node[8].veinsmobility posx ETV
vector 41 RSUExampleScenario.node[8].veinsmobility posy ETV
vector 42 RSUExampleScenario.node[8].veinsmobility speed ETV
vector 43 RSUExampleScenario.node[8].veinsmobility acceleration ETV
vector 44 RSUExampleScenario.node[8].veinsmobility co2emission ETV
vector 45 RSUExampleScenario.node[9].veinsmobility posx ETV
vector 46 RSUExampleScenario.node[9].veinsmobility posy ETV
vector 47 RSUExampleScenario.node[9].veinsmobility speed ETV
vector 48 RSUExampleScenario.node[9].veinsmobility acceleration ETV
vector 49 RSUExampleScenario.node[9].veinsmobility co2emission ETV
vector 50 RSUExampleScenario.node[10].veinsmobility posx ETV
vector 51 RSUExampleScenario.node[10].veinsmobility posy ETV
vector 52 RSUExampleScenario.node[10].veinsmobility speed ETV
vector 53 RSUExampleScenario.node[10].veinsmobility acceleration ETV
vector 54 RSUExampleScenario.node[10].veinsmobility co2emission ETV
vector 55 RSUExampleScenario.node[11].veinsmobility posx ETV
vector 56 RSUExampleScenario.node[11].veinsmobility posy ETV
vector 57 RSUExampleScenario.node[11].veinsmobility speed ETV
vector 58 RSUExampleScenario.node[11].veinsmobility acceleration ETV
vector 59 RSUExampleScenario.node[11].veinsmobility co2emission ETV
vector 60 RSUExampleScenario.node[12].veinsmobility posx ETV
vector 61 RSUExampleScenario.node[12].veinsmobility posy ETV
vector 62 RSUExampleScenario.node[12].veinsmobility speed ETV
vector 63 RSUExampleScenario.node[12].veinsmobility acceleration ETV
vector 64 RSUExampleScenario.node[12].veinsmobility co2emission ETV
vector 65 RSUExampleScenario.node[13].veinsmobility posx ETV
vector 66 RSUExampleScenario.node[13].veinsmobility posy ETV
vector 67 RSUExampleScenario.node[13].veinsmobility speed ETV
vector 68 RSUExampleScenario.node[13].veinsmobility acceleration ETV
vector 69 RSUExampleScenario.node[13].veinsmobility co2emission ETV
vector 70 RSUExampleScenario.node[14].veinsmobility posx ETV
vector 71 RSUExampleScenario.node[14].veinsmobility posy ETV
vector 72 RSUExampleScenario.node[14].veinsmobility speed ETV
vector 73 RSUExampleScenario.node[14].veinsmobility acceleration ETV
vector 74 RSUExampleScenario.node[14].veinsmobility co2emission ETV
vector 75 RSUExampleScenario.node[15].veinsmobility posx ETV
vector 76 RSUExampleScenario.node[15].veinsmobility posy ETV
vector 77 RSUExampleScenario.node[15].veinsmobility speed ETV
vector 78 RSUExampleScenario.node[15].veinsmobility acceleration ETV
vector 79 RSUExampleScenario.node[15].veinsmobility co2emission ETV
vector 80 RSUExampleScenario.node[16].veinsmobility posx ETV
vector 81 RSUExampleScenario.node[16].veinsmobility posy ETV
vector 82 RSUExampleScenario.node[16].veinsmobility speed ETV
vector 83 RSUExampleScenario.node[16].veinsmobility acceleration ETV
vector 84 RSUExampleScenario.node[16].veinsmobility co2emission ETV
vector 85 RSUExampleScenario.node[17].veinsmobility posx ETV
vector 86 RSUExampleScenario.node[17].veinsmobility posy ETV
vector 87 RSUExampleScenario.node[17].veinsmobility speed ETV
vector 88 RSUExampleScenario.node[17].veinsmobility acceleration ETV
vector 89 RSUExampleScenario.node[17].veinsmobility co2emission ETV
vector 90 RSUExampleScenario.node[18].veinsmobility posx ETV
vector 91 RSUExampleScenario.node[18].veinsmobility posy ETV
vector 92 RSUExampleScenario.node[18].veinsmobility speed ETV
vector 93 RSUExampleScenario.node[18].veinsmobility acceleration ETV
vector 94 RSUExampleScenario.node[18].veinsmobility co2emission ETV
vector 95 RSUExampleScenario.node[19].veinsmobility posx ETV
vector 96 RSUExampleScenario.node[19].veinsmobility posy ETV
vector 97 RSUExampleScenario.node[19].veinsmobility speed ETV
vector 98 RSUExampleScenario.node[19].veinsmobility acceleration ETV
vector 99 RSUExampleScenario.node[19].veinsmobility co2emission ETV
vector 100 RSUExampleScenario.node[20].veinsmobility posx ETV
vector 101 RSUExampleScenario.node[20].veinsmobility posy ETV
vector 102 RSUExampleScenario.node[20].veinsmobility speed ETV
vector 103 RSUExampleScenario.node[20].veinsmobility acceleration ETV
vector 104 RSUExampleScenario.node[20].veinsmobility co2emission ETV
vector 105 RSUExampleScenario.node[21].veinsmobility posx ETV
vector 106 RSUExampleScenario.node[21].veinsmobility posy ETV
vector 107 RSUExampleScenario.node[21].veinsmobility speed ETV
vector 108 RSUExampleScenario.node[21].veinsmobility acceleration ETV
vector 109 RSUExampleScenario.node[21].veinsmobility co2emission ETV
vector 110 RSUExampleScenario.node[22].veinsmobility posx ETV
vector 111 RSUExampleScenario.node[22].veinsmobility posy ETV
vector 112 RSUExampleScenario.node[22].veinsmobility speed ETV
vector 113 RSUExampleScenario.node[22].veinsmobility acceleration ETV
vector 114 RSUExampleScenario.node[22].veinsmobility co2emission ETV
vector 115 RSUExampleScenario.node[23].veinsmobility posx ETV
vector 116 RSUExampleScenario.node[23].veinsmobility posy ETV
vector 117 RSUExampleScenario.node[23].veinsmobility speed ETV
vector 118 RSUExampleScenario.node[23].veinsmobility acceleration ETV
vector 119 RSUExampleScenario.node[23].veinsmobility co2emission ETV
vector 120 RSUExampleScenario.node[24].veinsmobility posx ETV
vector 121 RSUExampleScenario.node[24].veinsmobility posy ETV
vector 122 RSUExampleScenario.node[24].veinsmobility speed ETV
vector 123 RSUExampleScenario.node[24].veinsmobility acceleration ETV
vector 124 RSUExampleScenario.node[24].veinsmobility co2emission ETV
vector 125 RSUExampleScenario.node[25].veinsmobility posx ETV
vector 126 RSUExampleScenario.node[25].veinsmobility posy ETV
vector 127 RSUExampleScenario.node[25].veinsmobility speed ETV
vector 128 RSUExampleScenario.node[25].veinsmobility acceleration ETV
vector 129 RSUExampleScenario.node[25].veinsmobility co2emission ETV
vector 130 RSUExampleScenario.node[26].veinsmobility posx ETV
vector 131 RSUExampleScenario.node[26].veinsmobility posy ETV
vector 132 RSUExampleScenario.node[26].veinsmobility speed ETV
vector 133 RSUExampleScenario.node[26].veinsmobility acceleration ETV
vector 134 RSUExampleScenario.node[26].veinsmobility co2emission ETV
vector 135 RSUExampleScenario.node[27].veinsmobility posx ETV
vector 136 RSUExampleScenario.node[27].veinsmobility posy ETV
vector 137 RSUExampleScenario.node[27].veinsmobility speed ETV
vector 138 RSUExampleScenario.node[27].veinsmobility acceleration ETV
vector 139 RSUExampleScenario.node[27].veinsmobility co2emission ETV
vector 140 RSUExampleScenario.node[28].veinsmobility posx ETV
vector 141 RSUExampleScenario.node[28].veinsmobility posy ETV
vector 142 RSUExampleScenario.node[28].veinsmobility speed ETV
vector 143 RSUExampleScenario.node[28].veinsmobility acceleration ETV
vector 144 RSUExampleScenario.node[28].veinsmobility co2emission ETV
vector 145 RSUExampleScenario.node[29].veinsmobility posx ETV
vector 146 RSUExampleScenario.node[29].veinsmobility posy ETV
vector 147 RSUExampleScenario.node[29].veinsmobility speed ETV
vector 148 RSUExampleScenario.node[29].veinsmobility acceleration ETV
vector 149 RSUExampleScenario.node[29].veinsmobility co2emission ETV
vector 150 RSUExampleScenario.node[30].veinsmobility posx ETV
vector 151 RSUExampleScenario.node[30].veinsmobility posy ETV
vector 152 RSUExampleScenario.node[30].veinsmobility speed ETV
vector 153 RSUExampleScenario.node[30].veinsmobility acceleration ETV
vector 154 RSUExampleScenario.node[30].veinsmobility co2emission ETV
vector 155 RSUExampleScenario.node[31].veinsmobility posx ETV
vector 156 RSUExampleScenario.node[31].veinsmobility posy ETV
vector 157 RSUExampleScenario.node[31].veinsmobility speed ETV
vector 158 RSUExampleScenario.node[31].veinsmobility acceleration ETV
vector 159 RSUExampleScenario.node[31].veinsmobility co2emission ETV
vector 160 RSUExampleScenario.node[32].veinsmobility posx ETV
vector 161 RSUExampleScenario.node[32].veinsmobility posy ETV
vector 162 RSUExampleScenario.node[32].veinsmobility speed ETV
vector 163 RSUExampleScenario.node[32].veinsmobility acceleration ETV
vector 164 RSUExampleScenario.node[32].veinsmobility co2emission ETV
vector 165 RSUExampleScenario.node[33].veinsmobility posx ETV
vector 166 RSUExampleScenario.node[33].veinsmobility posy ETV
vector 167 RSUExampleScenario.node[33].veinsmobility speed ETV
vector 168 RSUExampleScenario.node[33].veinsmobility acceleration ETV
vector 169 RSUExampleScenario.node[33].veinsmobility co2emission ETV
vector 170 RSUExampleScenario.node[34].veinsmobility posx ETV
vector 171 RSUExampleScenario.node[34].veinsmobility posy ETV
vector 172 RSUExampleScenario.node[34].veinsmobility speed ETV
vector 173 RSUExampleScenario.node[34].veinsmobility acceleration ETV
vector 174 RSUExampleScenario.node[34].veinsmobility co2emission ETV
vector 175 RSUExampleScenario.node[35].veinsmobility posx ETV
vector 176 RSUExampleScenario.node[35].veinsmobility posy ETV
vector 177 RSUExampleScenario.node[35].veinsmobility speed ETV
vector 178 RSUExampleScenario.node[35].veinsmobility acceleration ETV
vector 179 RSUExampleScenario.node[35].veinsmobility co2emission ETV
vector 180 RSUExampleScenario.node[36].veinsmobility posx ETV
vector 181 RSUExampleScenario.node[36].veinsmobility posy ETV
vector 182 RSUExampleScenario.node[36].veinsmobility speed ETV
vector 183 RSUExampleScenario.node[36].veinsmobility acceleration ETV
vector 184 RSUExampleScenario.node[36].veinsmobility co2emission ETV
vector 185 RSUExampleScenario.node[37].veinsmobility posx ETV
vector 186 RSUExampleScenario.node[37].veinsmobility posy ETV
vector 187 RSUExampleScenario.node[37].veinsmobility speed ETV
vector 188 RSUExampleScenario.node[37].veinsmobility acceleration ETV
vector 189 RSUExampleScenario.node[37].veinsmobility co2emission ETV
vector 190 RSUExampleScenario.node[38].veinsmobility posx ETV
vector 191 RSUExampleScenario.node[38].veinsmobility posy ETV
vector 192 RSUExampleScenario.node[38].veinsmobility speed ETV
vector 193 RSUExampleScenario.node[38].veinsmobility acceleration ETV
vector 194 RSUExampleScenario.node[38].veinsmobility co2emission ETV
vector 195 RSUExampleScenario.node[39].veinsmobility posx ETV
vector 196 RSUExampleScenario.node[39].veinsmobility posy ETV
vector 197 RSUExampleScenario.node[39].veinsmobility speed ETV
vector 198 RSUExampleScenario.node[39].veinsmobility acceleration ETV
vector 199 RSUExampleScenario.node[39].veinsmobility co2emission ETV
vector 200 RSUExampleScenario.node[40].veinsmobility posx ETV
vector 201 RSUExampleScenario.node[40].veinsmobility posy ETV
vector 202 RSUExampleScenario.node[40].veinsmobility speed ETV
vector 203 RSUExampleScenario.node[40].veinsmobility acceleration ETV
vector 204 RSUExampleScenario.node[40].veinsmobility co2emission ETV
vector 205 RSUExampleScenario.node[41].veinsmobility posx ETV
vector 206 RSUExampleScenario.node[41].veinsmobility posy ETV
vector 207 RSUExampleScenario.node[41].veinsmobility speed ETV
vector 208 RSUExampleScenario.node[41].veinsmobility acceleration ETV
vector 209 RSUExampleScenario.node[41].veinsmobility co2emission ETV
vector 210 RSUExampleScenario.node[42].veinsmobility posx ETV
vector 211 RSUExampleScenario.node[42].veinsmobility posy ETV
vector 212 RSUExampleScenario.node[42].veinsmobility speed ETV
vector 213 RSUExampleScenario.node[42].veinsmobility acceleration ETV
vector 214 RSUExampleScenario.node[42].veinsmobility co2emission ETV
vector 215 RSUExampleScenario.node[43].veinsmobility posx ETV
vector 216 RSUExampleScenario.node[43].veinsmobility posy ETV
vector 217 RSUExampleScenario.node[43].veinsmobility speed ETV
vector 218 RSUExampleScenario.node[43].veinsmobility acceleration ETV
vector 219 RSUExampleScenario.node[43].veinsmobility co2emission ETV
vector 220 RSUExampleScenario.node[44].veinsmobility posx ETV
vector 221 RSUExampleScenario.node[44].veinsmobility posy ETV
vector 222 RSUExampleScenario.node[44].veinsmobility speed ETV
vector 223 RSUExampleScenario.node[44].veinsmobility acceleration ETV
vector 224 RSUExampleScenario.node[44].veinsmobility co2emission ETV
vector 225 RSUExampleScenario.node[45].veinsmobility posx ETV
vector 226 RSUExampleScenario.node[45].veinsmobility posy ETV
vector 227 RSUExampleScenario.node[45].veinsmobility speed ETV
vector 228 RSUExampleScenario.node[45].veinsmobility acceleration ETV
vector 229 RSUExampleScenario.node[45].veinsmobility co2emission ETV
vector 230 RSUExampleScenario.node[46].veinsmobility posx ETV
vector 231 RSUExampleScenario.node[46].veinsmobility posy ETV
vector 232 RSUExampleScenario.node[46].veinsmobility speed ETV
vector 233 RSUExampleScenario.node[46].veinsmobility acceleration ETV
vector 234 RSUExampleScenario.node[46].veinsmobility co2emission ETV
vector 235 RSUExampleScenario.node[47].veinsmobility posx ETV
vector 236 RSUExampleScenario.node[47].veinsmobility posy ETV
vector 237 RSUExampleScenario.node[47].veinsmobility speed ETV
vector 238 RSUExampleScenario.node[47].veinsmobility acceleration ETV
vector 239 RSUExampleScenario.node[47].veinsmobility co2emission ETV
vector 240 RSUExampleScenario.node[48].veinsmobility posx ETV
vector 241 RSUExampleScenario.node[48].veinsmobility posy ETV
vector 242 RSUExampleScenario.node[48].veinsmobility speed ETV
vector 243 RSUExampleScenario.node[48].veinsmobility acceleration ETV
vector 244 RSUExampleScenario.node[48].veinsmobility co2emission ETV
vector 245 RSUExampleScenario.node[49].veinsmobility posx ETV
vector 246 RSUExampleScenario.node[49].veinsmobility posy ETV
vector 247 RSUExampleScenario.node[49].veinsmobility speed ETV
vector 248 RSUExampleScenario.node[49].veinsmobility acceleration ETV
vector 249 RSUExampleScenario.node[49].veinsmobility co2emission ETV
vector 250 RSUExampleScenario.node[50].veinsmobility posx ETV
vector 251 RSUExampleScenario.node[50].veinsmobility posy ETV
vector 252 RSUExampleScenario.node[50].veinsmobility speed ETV
vector 253 RSUExampleScenario.node[50].veinsmobility acceleration ETV
vector 254 RSUExampleScenario.node[50].veinsmobility co2emission ETV
vector 255 RSUExampleScenario.node[51].veinsmobility posx ETV
vector 256 RSUExampleScenario.node[51].veinsmobility posy ETV
vector 257 RSUExampleScenario.node[51].veinsmobility speed ETV
vector 258 RSUExampleScenario.node[51].veinsmobility acceleration ETV
vector 259 RSUExampleScenario.node[51].veinsmobility co2emission ETV
vector 260 RSUExampleScenario.node[52].veinsmobility posx ETV
vector 261 RSUExampleScenario.node[52].veinsmobility posy ETV
vector 262 RSUExampleScenario.node[52].veinsmobility speed ETV
vector 263 RSUExampleScenario.node[52].veinsmobility acceleration ETV
vector 264 RSUExampleScenario.node[52].veinsmobility co2emission ETV
vector 265 RSUExampleScenario.node[53].veinsmobility posx ETV
vector 266 RSUExampleScenario.node[53].veinsmobility posy ETV
vector 267 RSUExampleScenario.node[53].veinsmobility speed ETV
vector 268 RSUExampleScenario.node[53].veinsmobility acceleration ETV
vector 269 RSUExampleScenario.node[53].veinsmobility co2emission ETV
vector 270 RSUExampleScenario.node[54].veinsmobility posx ETV
vector 271 RSUExampleScenario.node[54].veinsmobility posy ETV
vector 272 RSUExampleScenario.node[54].veinsmobility speed ETV
vector 273 RSUExampleScenario.node[54].veinsmobility acceleration ETV
vector 274 RSUExampleScenario.node[54].veinsmobility co2emission ETV
vector 275 RSUExampleScenario.node[55].veinsmobility posx ETV
vector 276 RSUExampleScenario.node[55].veinsmobility posy ETV
vector 277 RSUExampleScenario.node[55].veinsmobility speed ETV
vector 278 RSUExampleScenario.node[55].veinsmobility acceleration ETV
vector 279 RSUExampleScenario.node[55].veinsmobility co2emission ETV
vector 280 RSUExampleScenario.node[56].veinsmobility posx ETV
vector 281 RSUExampleScenario.node[56].veinsmobility posy ETV
vector 282 RSUExampleScenario.node[56].veinsmobility speed ETV
vector 283 RSUExampleScenario.node[56].veinsmobility acceleration ETV
vector 284 RSUExampleScenario.node[56].veinsmobility co2emission ETV
vector 285 RSUExampleScenario.node[57].veinsmobility posx ETV
vector 286 RSUExampleScenario.node[57].veinsmobility posy ETV
vector 287 RSUExampleScenario.node[57].veinsmobility speed ETV
vector 288 RSUExampleScenario.node[57].veinsmobility acceleration ETV
vector 289 RSUExampleScenario.node[57].veinsmobility co2emission ETV
vector 290 RSUExampleScenario.node[58].veinsmobility posx ETV
vector 291 RSUExampleScenario.node[58].veinsmobility posy ETV
vector 292 RSUExampleScenario.node[58].veinsmobility speed ETV
vector 293 RSUExampleScenario.node[58].veinsmobility acceleration ETV
vector 294 RSUExampleScenario.node[58].veinsmobility co2emission ETV
vector 295 RSUExampleScenario.node[59].veinsmobility posx ETV
vector 296 RSUExampleScenario.node[59].veinsmobility posy ETV
vector 297 RSUExampleScenario.node[59].veinsmobility speed ETV
vector 298 RSUExampleScenario.node[59].veinsmobility acceleration ETV
vector 299 RSUExampleScenario.node[59].veinsmobility co2emission ETV
vector 300 RSUExampleScenario.node[60].veinsmobility posx ETV
vector 301 RSUExampleScenario.node[60].veinsmobility posy ETV
vector 302 RSUExampleScenario.node[60].veinsmobility speed ETV
vector 303 RSUExampleScenario.node[60].veinsmobility acceleration ETV
vector 304 RSUExampleScenario.node[60].veinsmobility co2emission ETV
vector 305 RSUExampleScenario.node[61].veinsmobility posx ETV
vector 306 RSUExampleScenario.node[61].veinsmobility posy ETV
vector 307 RSUExampleScenario.node[61].veinsmobility speed ETV
vector 308 RSUExampleScenario.node[61].veinsmobility acceleration ETV
vector 309 RSUExampleScenario.node[61].veinsmobility co2emission ETV
vector 310 RSUExampleScenario.node[62].veinsmobility posx ETV
vector 311 RSUExampleScenario.node[62].veinsmobility posy ETV
vector 312 RSUExampleScenario.node[62].veinsmobility speed ETV
vector 313 RSUExampleScenario.node[62].veinsmobility acceleration ETV
vector 314 RSUExampleScenario.node[62].veinsmobility co2emission ETV
vector 315 RSUExampleScenario.node[63].veinsmobility posx ETV
vector 316 RSUExampleScenario.node[63].veinsmobility posy ETV
vector 317 RSUExampleScenario.node[63].veinsmobility speed ETV
vector 318 RSUExampleScenario.node[63].veinsmobility acceleration ETV
vector 319 RSUExampleScenario.node[63].veinsmobility co2emission ETV
vector 320 RSUExampleScenario.node[64].veinsmobility posx ETV
vector 321 RSUExampleScenario.node[64].veinsmobility posy ETV
vector 322 RSUExampleScenario.node[64].veinsmobility speed ETV
vector 323 RSUExampleScenario.node[64].veinsmobility acceleration ETV
vector 324 RSUExampleScenario.node[64].veinsmobility co2emission ETV
vector 325 RSUExampleScenario.node[65].veinsmobility posx ETV
vector 326 RSUExampleScenario.node[65].veinsmobility posy ETV
vector 327 RSUExampleScenario.node[65].veinsmobility speed ETV
vector 328 RSUExampleScenario.node[65].veinsmobility acceleration ETV
vector 329 RSUExampleScenario.node[65].veinsmobility co2emission ETV
vector 330 RSUExampleScenario.node[66].veinsmobility posx ETV
vector 331 RSUExampleScenario.node[66].veinsmobility posy ETV
vector 332 RSUExampleScenario.node[66].veinsmobility speed ETV
vector 333 RSUExampleScenario.node[66].veinsmobility acceleration ETV
vector 334 RSUExampleScenario.node[66].veinsmobility co2emission ETV
vector 335 RSUExampleScenario.node[67].veinsmobility posx ETV
vector 336 RSUExampleScenario.node[67].veinsmobility posy ETV
vector 337 RSUExampleScenario.node[67].veinsmobility speed ETV
vector 338 RSUExampleScenario.node[67].veinsmobility acceleration ETV
vector 339 RSUExampleScenario.node[67].veinsmobility co2emission ETV
vector 340 RSUExampleScenario.node[68].veinsmobility posx ETV
vector 341 RSUExampleScenario.node[68].veinsmobility posy ETV
vector 342 RSUExampleScenario.node[68].veinsmobility speed ETV
vector 343 RSUExampleScenario.node[68].veinsmobility acceleration ETV
vector 344 RSUExampleScenario.node[68].veinsmobility co2emission ETV
vector 345 RSUExampleScenario.node[69].veinsmobility posx ETV
vector 346 RSUExampleScenario.node[69].veinsmobility posy ETV
vector 347 RSUExampleScenario.node[69].veinsmobility speed ETV
vector 348 RSUExampleScenario.node[69].veinsmobility acceleration ETV
vector 349 RSUExampleScenario.node[69].veinsmobility co2emission ETV
0	2	1	2414.8476884116
0	3	2	2411.8243290941
0	4	3	2407.1592244543
0	5	4	2402.288200066
0	6	5	2396.1394374635
0	7	6	2388.6993875942
0	8	7	2379.889221533
0	9	8	2370.1207192459
0	10	9	2360.3141803208
0	11	10	2350.5099475634
0	12	11	2341.0010868867
0	13	12	2334.5620136983
0	14	13	2337.6803779466
0	15	14	2348.3497968862
0	16	15	2358.6961674725
0	17	16	2371.6616533546
0	18	17	2385.4706804305
0	19	18	2399.3588350668
0	20	19	2412.4541998667
0	21	20	2421.4418196582
0	22	21	2428.417609864
0	23	22	2431.468930052
0	24	23	2433.1513403206
0	25	24	2435.1237040944
0	26	25	2437.2173147583
0	27	26	2438.6437980286
0	28	27	2439.5074353185
0	29	28	2440.517813261
0	30	29	2441.5286354903
0	31	30	2442.5392864447
0	32	31	2443.5505626462
0	33	32	2444.5611125134
0	34	33	2445.5724211388
0	35	34	2446.5834693939
0	36	35	2447.5934051003
0	37	36	2448.6036931522
0	38	37	2449.6148620235
0	39	38	2450.6248001783
0	40	39	2449.5880553933
0	41	40	2448.4757357414
0	42	41	2447.3635385588
0	43	42	2446.250303259
0	44	43	2445.1365203297
0	45	44	2444.0235521834
0	46	45	2442.9111769209
0	47	46	2441.7982721732
0	48	47	2440.6856421625
0	49	48	2439.7151308154
0	50	49	2438.7725309408
0	51	50	2437.9056889905
0	52	51	2432.8785054281
0	53	52	2422.5273191113
0	54	53	2409.439604845
0	55	54	2395.517893619
0	56	55	2381.592286239
0	57	56	2367.6659531716
0	58	57	2353.7601239877
0	59	58	2339.8337569573
0	60	59	2325.9069679289
0	61	60	2311.9542202253
0	62	61	2298.0325140053
0	63	62	2284.0857072632
0	64	63	2270.1754193477
0	65	64	2256.2378749268
0	66	65	2242.3725172955
0	67	66	2228.5623045168
0	68	67	2214.8068758136
0	69	68	2201.6159272967
0	70	69	2188.41049514
0	71	70	2175.4595331684
0	72	71	2163.4460695032
0	73	72	2152.2029822947
0	74	73	2144.5427125699
0	76	74	2140.7603855053
0	77	75	2140.3234504706
0	78	76	2140.3234504706
0	79	77	2140.3234504706
0	80	78	2140.3234504706
0	81	79	2140.3234504706
0	82	80	2140.3234504706
0	83	81	2140.3234504706
0	84	82	2140.3234504706
0	85	83	2140.3234504706
0	86	84	2140.3234504706
0	209	85	2140.3234504706
0	210	86	2140.3234504706
0	2247	87	2140.3234504706
0	2248	88	2140.3234504706
0	5924	89	2140.3234504706
0	5925	90	2140.3234504706
0	8444	91	2140.3234504706
0	8445	92	2140.3234504706
0	10601	93	2140.3234504706
0	10602	94	2140.3234504706
0	12772	95	2140.3234504706
0	12773	96	2140.3234504706
0	14982	97	2140.3234504706
0	14983	98	2140.3234504706
0	17314	99	2140.3234504706
0	17315	100	2140.3234504706
0	19389	101	2140.3234504706
0	20095	102	2140.3234504706
0	21175	103	2140.3234504706
0	22570	104	2139.2991757134
0	23166	105	2136.740978117
0	25049	106	2133.0437330272
0	25324	107	2128.0124995244
0	27401	108	2121.6776393328
0	27556	109	2113.9053156064
0	30081	110	2104.7718132839
0	30082	111	2095.2456629085
0	32688	112	2085.7044790605
0	32689	113	2076.1861662943
0	35668	114	2066.670070329
0	35669	115	2057.1526815422
0	38394	116	2047.597364574
0	38555	117	2037.5948589669
0	41226	118	2027.5942984156
0	41539	119	2017.6030629693
0	43441	120	2007.6154007891
0	44369	121	1997.623049475
0	46293	122	1987.6274479465
0	47256	123	1977.6381748087
0	48701	124	1967.646468105
0	50198	125	1957.6523335292
0	51864	126	1947.6847516014
0	53357	127	1937.6857549025
0	54403	128	1927.9336809536
0	56783	129	1918.1938589809
0	57172	130	1908.4728771779
0	60238	131	1898.7441589102
0	60411	132	1889.0066847192
0	63322	133	1879.2897982722
0	63497	134	1869.5580969213
0	66605	135	1859.8202077833
0	66784	136	1850.0662327139
0	69632	137	1840.3193876417
0	70174	138	1830.3605409526
0	72908	139	1820.2528821498
0	73631	140	1810.1501451577
0	76741	141	1800.1895739111
0	77653	142	1790.2291601248
0	80198	143	1780.2722860255
0	81480	144	1770.3301096529
0	83610	145	1760.3654211591
0	85529	146	1750.3907904151
0	86943	147	1740.442060629
0	89159	148	1730.4725336139
0	90155	149	1720.5211891041
0	93048	150	1710.5632614542
0	93602	151	1700.6145039358
0	96779	152	1690.6480194803
0	96780	153	1680.7128811331
0	100867	154	1670.7640079054
0	100868	155	1660.811654621
0	105148	156	1650.8533681619
0	105338	157	1640.8856930957
0	109171	158	1630.9239079073
0	109552	159	1620.9727441537
0	112951	160	1611.1894066964
0	113702	161	1601.3767574185
0	116236	162	1591.5540204546
0	117496	163	1581.737862478
0	119617	164	1571.9184067256
0	121445	165	1562.1149529262
0	122969	166	1551.6891575812
0	125098	167	1541.1414253515
0	126579	168	1530.5873801722
0	128948	169	1520.0263629379
0	130323	170	1509.4658684488
0	132881	171	1498.4472371876
0	133846	172	1487.0323369752
0	137427	173	1475.62003347
0	137740	174	1464.2299869821
0	141282	175	1452.826186987
0	141481	176	1440.6470708119
0	144995	177	1428.0388177066
0	145350	178	1415.4003710974
0	148584	179	1402.7685516541
0	149109	180	1389.5052684828
0	152003	181	1376.2300869388
0	153299	182	1362.9555677524
0	155706	183	1349.370323004
0	157317	184	1335.6148454138
0	159832	185	1322.0132363969
0	162116	186	1308.2919875574
0	163682	187	1294.5848907653
0	166109	188	1280.8277572043
0	167314	189	1267.0473874448
0	170255	190	1253.2285500669
0	170892	191	1239.3645410584
0	173824	192	1225.5129395482
0	174172	193	1211.6573181822
0	177883	194	1197.791253647
0	178072	195	1183.9436453452
0	181346	196	1170.0748700529
0	181885	197	1156.2223213518
0	185256	198	1142.3724729763
0	186303	199	1128.5246871937
0	189437	200	1114.6511729256
0	190461	201	1100.7462438466
0	193533	202	1086.8259185482
0	194783	203	1072.946819415
0	197300	204	1059.0754754749
0	198676	205	1045.2014604092
0	200785	206	1031.3299352524
0	202672	207	1017.4329382987
0	203523	208	1003.5493149898
0	206611	209	989.67024940334
0	206970	210	975.78324480238
1	2	1	1578.4613427464
1	3	2	1579.5715045081
1	4	3	1581.5561876604
1	5	4	1586.4898643075
1	6	5	1592.7177137369
1	7	6	1600.2534592729
1	8	7	1609.1769437566
1	9	8	1619.0710908128
1	10	9	1629.0037637418
1	11	10	1638.9341008412
1	12	11	1649.1129276818
1	13	12	1661.0453354148
1	14	13	1673.5713017788
1	15	14	1682.4825292248
1	16	15	1691.8131453674
1	17	16	1695.5671389326
1	18	17	1697.3762977775
1	19	18	1698.7149431584
1	20	19	1699.9531973498
1	21	20	1700.8030368192
1	22	21	1701.4822415169
1	23	22	1709.488976148
1	24	23	1720.5600911779
1	25	24	1733.5392477075
1	26	25	1747.3162704222
1	27	26	1761.1584832035
1	28	27	1775.0702432813
1	29	28	1788.9649324082
1	30	29	1802.8657313576
1	31	30	1816.7641749373
1	32	31	1830.6712168986
1	33	32	1844.5682703312
1	34	33	1858.4757581847
1	35	34	1872.3796654344
1	36	35	1886.2682729438
1	37	36	1900.1617258992
1	38	37	1914.0672918586
1	39	38	1927.95593304
1	40	39	1941.8192613758
1	41	40	1955.7024557721
1	42	41	1969.5841215905
1	43	42	1983.4787444612
1	44	43	1997.3802024601
1	45	44	2011.2714909082
1	46	45	2025.1553793969
1	47	46	2039.0458765477
1	48	47	2052.9329446238
1	49	48	2066.8462265795
1	50	49	2080.7728807703
1	51	50	2094.6498483503
1	52	51	2107.3969092406
1	53	52	2116.410831539
1	54	53	2120.9360540062
1	55	54	2120.5048353085
1	56	55	2120.0344859883
1	57	56	2119.5641121576
1	58	57	2119.0944308629
1	59	58	2118.6240558857
1	60	59	2118.1536666537
1	61	60	2117.6824006466
1	62	61	2117.2121830918
1	63	62	2116.7411177447
1	64	63	2116.2712858524
1	65	64	2115.8005333487
1	66	65	2114.7955725584
1	67	66	2112.8371776454
1	68	67	2110.6451732265
1	69	68	2106.1714176713
1	70	69	2101.6927499389
1	71	70	2096.6090699211
1	72	71	2089.5369335469
1	73	72	2082.9183056299
1	74	73	2078.4088257942
1	76	74	2076.1822295729
1	77	75	2075.9250128167
1	78	76	2075.9250128167
1	79	77	2075.9250128167
1	80	78	2075.9250128167
1	81	79	2075.9250128167
1	82	80	2075.9250128167
1	83	81	2075.9250128167
1	84	82	2075.9250128167
1	85	83	2075.9250128167
1	86	84	2075.9250128167
1	209	85	2075.9250128167
1	210	86	2075.9250128167
1	2247	87	2075.9250128167
1	2248	88	2075.9250128167
1	5924	89	2075.9250128167
1	5925	90	2075.9250128167
1	8444	91	2075.9250128167
1	8445	92	2075.9250128167
1	10601	93	2075.9250128167
1	10602	94	2075.9250128167
1	12772	95	2075.9250128167
1	12773	96	2075.9250128167
1	14982	97	2075.9250128167
1	14983	98	2075.9250128167
1	17314	99	2075.9250128167
1	17315	100	2075.9250128167
1	19389	101	2075.9250128167
1	20095	102	2075.9250128167
1	21175	103	2075.9250128167
1	22570	104	2075.1267298609
1	23166	105	2072.866368236
1	25049	106	2068.9195549712
1	25324	107	2063.5487075839
1	27401	108	2056.7862372501
1	27556	109	2048.4892729856
1	30081	110	2038.7392490497
1	30082	111	2028.5700728772
1	32688	112	2018.3848484568
1	32689	113	2008.2240389418
1	35668	114	1998.0655958634
1	35669	115	1987.9057726972
1	38394	116	1977.750551613
1	38555	117	1968.027126695
1	41226	118	1958.305592563
1	41539	119	1948.5931233568
1	43441	120	1938.8841277175
1	44369	121	1929.1705737766
1	46293	122	1919.4538603062
1	47256	123	1909.7432986572
1	48701	124	1900.0303713419
1	50198	125	1890.3150838939
1	51864	126	1880.6256082468
1	53357	127	1870.9055943349
1	54403	128	1860.9125548024
1	56783	129	1850.9317674171
1	57172	130	1840.9702863116
1	60238	131	1831.0008773403
1	60411	132	1821.0224958211
1	63322	133	1811.065211392
1	63497	134	1801.0927455341
1	66605	135	1791.1139388029
1	66784	136	1781.1186481696
1	69632	137	1771.1306639323
1	70174	138	1761.3956120927
1	72908	139	1751.7959128357
1	73631	140	1742.2008880451
1	76741	141	1732.4690699559
1	77653	142	1722.7077396931
1	80198	143	1712.9498783676
1	81480	144	1703.206420999
1	83610	145	1693.4409014694
1	85529	146	1683.6656384105
1	86943	147	1673.9157586144
1	89159	148	1664.1454972727
1	90155	149	1654.3930550152
1	93048	150	1644.6341611966
1	93602	151	1634.8842542227
1	96779	152	1625.1169746285
1	96780	153	1615.3804146126
1	100867	154	1605.6303942418
1	100868	155	1595.8769633723
1	105148	156	1586.1177179171
1	105338	157	1576.3492715089
1	109171	158	1566.5865972554
1	109552	159	1556.8343321402
1	112951	160	1547.0691804988
1	113702	161	1537.1637645792
1	116236	162	1527.2481656065
1	117496	163	1517.3392078169
1	119617	164	1507.4269210752
1	121445	165	1497.5307875657
1	122969	166	1488.2704742439
1	125098	167	1479.146629137
1	126579	168	1470.0173232947
1	128948	169	1460.8819865864
1	130323	170	1451.7471020566
1	132881	171	1443.2117363494
1	133846	172	1435.1674178727
1	137427	173	1427.1249293489
1	137740	174	1419.0981258107
1	141282	175	1411.0616298886
1	141481	176	1404.3396691149
1	144995	177	1398.3953859517
1	145350	178	1392.4368677679
1	148584	179	1386.4814740261
1	149109	180	1382.1355835628
1	152003	181	1377.8526121471
1	153299	182	1373.5698544281
1	155706	183	1370.8377097519
1	157317	184	1368.6022535814
1	159832	185	1366.2149965893
1	162116	186	1363.8997653825
1	163682	187	1361.4556690576
1	166109	188	1359.1353876358
1	167314	189	1357.0449506408
1	170255	190	1355.291695727
1	170892	191	1353.8296104092
1	173824	192	1352.3688335754
1	174172	193	1350.907632811
1	177883	194	1349.4453307204
1	178072	195	1347.9849750055
1	181346	196	1346.5223870408
1	181885	197	1345.061510317
1	185256	198	1343.6009183666
1	186303	199	1342.1405439349
1	189437	200	1340.7832804294
1	190461	201	1339.8297995785
1	193533	202	1338.8657797603
1	194783	203	1337.7368237227
1	197300	204	1336.5469790995
1	198676	205	1335.3569053551
1	200785	206	1334.1670451872
1	202672	207	1332.9750001207
1	203523	208	1331.784102208
1	206611	209	1330.593595244
1	206970	210	1329.4024072932
2	3	2	4.1061966058897
2	4	3	6.0195495591482
2	5	4	7.7148368984793
2	6	5	9.5879868385225
2	7	6	11.391389363371
2	8	7	13.513839789145
2	9	8	13.99235115225
2	10	9	13.890224446259
2	11	10	13.976677174468
2	12	11	13.994826577434
2	13	12	13.923680325528
2	14	13	13.923542996629
2	15	14	13.91007151508
2	16	15	13.964598868005
2	17	16	13.995233640105
2	18	17	13.952304350403
2	19	18	13.956911946491
2	20	19	11.503494614513
2	21	20	7.0034946145128
2	22	21	7.8970062485022
2	23	22	10.10483181514
2	24	23	11.990706169653
2	25	24	13.981089308816
2	26	25	13.965594365916
2	27	26	13.989059597438
2	28	27	13.956378436291
2	29	28	13.910982951869
2	30	29	13.88918493646
2	31	30	13.908189346099
2	32	31	13.983992603337
2	33	32	13.971500478752
2	34	33	13.873081948087
2	35	34	13.985133641064
2	36	35	13.886848415199
2	37	36	13.876205747321
2	38	37	13.967912819823
2	39	38	13.871047234884
2	40	39	13.89239756926
2	41	40	13.872267716837
2	42	41	13.999815066161
2	43	42	13.964707984752
2	44	43	13.906584702837
2	45	44	13.922364303169
2	46	45	13.929034490574
2	47	46	13.93922677479
2	48	47	13.924399639922
2	49	48	13.96850544848
2	50	49	13.986686690277
2	51	50	13.935194088209
2	52	51	13.930097484484
2	53	52	13.948393711536
2	54	53	13.882971800906
2	55	54	13.87138918183
2	56	55	13.933780807857
2	57	56	13.942265776542
2	58	57	13.95140511482
2	59	58	13.886548467774
2	60	59	13.920721456567
2	61	60	13.906796863726
2	62	61	13.917803910668
2	63	62	13.924582225601
2	64	63	13.959688465288
2	65	64	13.957318032989
2	66	65	13.940553226951
2	67	66	13.879855337965
2	68	67	13.977758804618
2	69	68	13.914176650653
2	70	69	13.928041475909
2	71	70	13.977535404016
2	72	71	13.928572678084
2	73	72	11.364046791626
2	74	73	6.8640467916256
2	76	74	2.3640467916256
2	77	75	0
2	78	76	0
2	79	77	0
2	80	78	0
2	81	79	0
2	82	80	0
2	83	81	0
2	84	82	0
2	85	83	0
2	86	84	0
2	209	85	0
2	210	86	0
2	2247	87	0
2	2248	88	0
2	5924	89	0
2	5925	90	0
2	8444	91	0
2	8445	92	0
2	10601	93	0
2	10602	94	0
2	12772	95	0
2	12773	96	0
2	14982	97	0
2	14983	98	0
2	17314	99	0
2	17315	100	0
2	19389	101	0
2	20095	102	0
2	21175	103	0
2	22570	104	2.2219942613752
2	23166	105	4.3816652589273
2	25049	106	6.271098397682
2	25324	107	8.1846742143464
2	27401	108	10.238758130733
2	27556	109	12.368734642219
2	30081	110	13.962109271805
2	30082	111	13.911634699195
2	32688	112	13.994902517959
2	32689	113	13.870053731997
2	35668	114	13.976907482436
2	35669	115	13.950773314217
2	38394	116	13.891843429431
2	38555	117	13.968838639685
2	41226	118	13.91932465568
2	41539	119	13.984092041836
2	43441	120	13.871692825702
2	44369	121	13.927151927806
2	46293	122	13.973668163263
2	47256	123	13.916281378635
2	48701	124	13.977997485921
2	50198	125	13.984640441614
2	51864	126	13.891179656545
2	53357	127	13.956347654387
2	54403	128	13.997457496454
2	56783	129	13.996440842676
2	57172	130	13.93166196655
2	60238	131	13.91925696315
2	60411	132	13.941801034384
2	63322	133	13.886954832799
2	63497	134	13.978021705605
2	66605	135	13.949109120453
2	66784	136	13.982399021722
2	69632	137	13.98021949447
2	70174	138	13.889212720471
2	72908	139	13.929920565395
2	73631	140	13.900445763736
2	76741	141	13.909271203713
2	77653	142	13.881787659936
2	80198	143	13.924509647971
2	81480	144	13.877062078733
2	83610	145	13.932049612158
2	85529	146	13.972256193364
2	86943	147	13.873275855898
2	89159	148	13.931230680684
2	90155	149	13.926209465729
2	93048	150	13.898754838682
2	93602	151	13.947313222338
2	96779	152	13.961593384231
2	96780	153	13.917843037636
2	100867	154	13.919741549029
2	100868	155	13.914632304031
2	105148	156	13.937833442583
2	105338	157	13.940750114343
2	109171	158	13.926133309726
2	109552	159	13.909638810402
2	112951	160	13.93505833046
2	113702	161	13.960441317607
2	116236	162	13.930902947583
2	117496	163	13.978870710894
2	119617	164	13.942439569917
2	121445	165	13.916482416282
2	122969	166	13.913281143934
2	125098	167	13.872779091697
2	126579	168	13.919343759529
2	128948	169	13.939133758552
2	130323	170	13.873881059601
2	132881	171	13.929103458596
2	133846	172	13.899088435569
2	137427	173	13.872872930043
2	137740	174	13.961270132577
2	141282	175	13.891376797189
2	141481	176	13.946562061303
2	144995	177	13.880639836157
2	145350	178	13.967846674775
2	148584	179	13.891077681468
2	149109	180	13.880399412508
2	152003	181	13.913097050365
2	153299	182	13.878054136415
2	155706	183	13.934692124391
2	157317	184	13.88320664898
2	159832	185	13.878037566419
2	162116	186	13.891791597113
2	163682	187	13.947244791088
2	166109	188	13.983490237349
2	167314	189	13.998185117715
2	170255	190	13.974751957422
2	170892	191	13.976185514266
2	173824	192	13.948040901108
2	174172	193	13.90066479682
2	177883	194	13.874626426769
2	178072	195	13.999132708127
2	181346	196	13.982017293202
2	181885	197	13.891437354072
2	185256	198	13.903199838763
2	186303	199	13.873872488737
2	189437	200	13.948803576236
2	190461	201	13.929670773684
2	193533	202	13.95546907637
2	194783	203	13.939184857174
2	197300	204	13.915158652705
2	198676	205	13.978015207129
2	200785	206	13.946045098519
2	202672	207	13.971694797422
2	203523	208	13.917180792587
2	206611	209	13.910160075144
2	206970	210	13.958391597297
3	4	3	1.9133529532584
3	5	4	1.6952873393311
3	6	5	1.8731499400432
3	7	6	1.8034025248489
3	8	7	2.1224504257739
3	9	8	0.47851136310433
3	10	9	-0.1021267059911
3	11	10	0.086452728209551
3	12	11	0.018149402965792
3	13	12	-0.071146251906175
3	14	13	-0.0001373288989992
3	15	14	-0.013471481548622
3	16	15	0.054527352924923
3	17	16	0.03063477210002
3	18	17	-0.04292928970186
3	19	18	0.0046075960877356
3	20	19	-2.4534173319781
3	21	20	-4.5
3	22	21	0.8935116339894
3	23	22	2.2078255666373
3	24	23	1.8858743545134
3	25	24	1.9903831391631
3	26	25	-0.01549494290026
3	27	26	0.023465231521987
3	28	27	-0.032681161146611
3	29	28	-0.045395484422334
3	30	29	-0.021798015409148
3	31	30	0.019004409639164
3	32	31	0.075803257238585
3	33	32	-0.012492124584968
3	34	33	-0.098418530665803
3	35	34	0.11205169297755
3	36	35	-0.098285225864965
3	37	36	-0.01064266787842
3	38	37	0.091707072502468
3	39	38	-0.096865584938786
3	40	39	0.021350334375166
3	41	40	-0.020129852422979
3	42	41	0.12754734932445
3	43	42	-0.035107081409079
3	44	43	-0.058123281914741
3	45	44	0.015779600332026
3	46	45	0.0066701874043797
3	47	46	0.010192284216172
3	48	47	-0.014827134867664
3	49	48	0.044105808557942
3	50	49	0.018181241797283
3	51	50	-0.051492602068466
3	52	51	-0.0050966037251055
3	53	52	0.018296227052343
3	54	53	-0.065421910630539
3	55	54	-0.011582619075197
3	56	55	0.062391626026946
3	57	56	0.0084849686850799
3	58	57	0.0091393382777465
3	59	58	-0.064856647045817
3	60	59	0.034172988792415
3	61	60	-0.013924592840485
3	62	61	0.011007046941668
3	63	62	0.0067783149331806
3	64	63	0.035106239686721
3	65	64	-0.0023704322986315
3	66	65	-0.016764806038699
3	67	66	-0.060697888985743
3	68	67	0.097903466653079
3	69	68	-0.063582153965253
3	70	69	0.013864825256169
3	71	70	0.049493928106967
3	72	71	-0.048962725931778
3	73	72	-2.5645258864584
3	74	73	-4.5
3	76	74	-4.5
3	77	75	-2.3640467916256
3	78	76	0
3	79	77	0
3	80	78	0
3	81	79	0
3	82	80	0
3	83	81	0
3	84	82	0
3	85	83	0
3	86	84	0
3	209	85	0
3	210	86	0
3	2247	87	0
3	2248	88	0
3	5924	89	0
3	5925	90	0
3	8444	91	0
3	8445	92	0
3	10601	93	0
3	10602	94	0
3	12772	95	0
3	12773	96	0
3	14982	97	0
3	14983	98	0
3	17314	99	0
3	17315	100	0
3	19389	101	0
3	20095	102	0
3	21175	103	0
3	22570	104	2.2219942613752
3	23166	105	2.1596709975521
3	25049	106	1.8894331387547
3	25324	107	1.9135758166644
3	27401	108	2.0540839163866
3	27556	109	2.1299765114859
3	30081	110	1.593374629586
3	30082	111	-0.05047457261011
3	32688	112	0.083267818763851
3	32689	113	-0.12484878596151
3	35668	114	0.10685375043889
3	35669	115	-0.026134168219286
3	38394	116	-0.058929884785321
3	38555	117	0.0769952102541
3	41226	118	-0.049513984005898
3	41539	119	0.0647673861566
3	43441	120	-0.11239921613364
3	44369	121	0.055459102103486
3	46293	122	0.046516235456803
3	47256	123	-0.057386784628035
3	48701	124	0.061716107286047
3	50198	125	0.0066429556929517
3	51864	126	-0.093460785069038
3	53357	127	0.065167997842654
3	54403	128	0.041109842066653
3	56783	129	-0.0010166537784961
3	57172	130	-0.064778876125347
3	60238	131	-0.012405003400055
3	60411	132	0.022544071234297
3	63322	133	-0.054846201585605
3	63497	134	0.091066872805822
3	66605	135	-0.028912585151847
3	66784	136	0.033289901269599
3	69632	137	-0.0021795272524461
3	70174	138	-0.091006773998961
3	72908	139	0.040707844924182
3	73631	140	-0.029474801658653
3	76741	141	0.0088254399760626
3	77653	142	-0.027483543776906
3	80198	143	0.0427219880349
3	81480	144	-0.047447569237557
3	83610	145	0.054987533425447
3	85529	146	0.04020658120513
3	86943	147	-0.098980337465182
3	89159	148	0.057954824785702
3	90155	149	-0.0050212149554856
3	93048	150	-0.027454627046827
3	93602	151	0.0485583836562
3	96779	152	0.014280161892529
3	96780	153	-0.043750346594024
3	100867	154	0.0018985113920635
3	100868	155	-0.005109244997147
3	105148	156	0.023201138551812
3	105338	157	0.0029166717594489
3	109171	158	-0.014616804616525
3	109552	159	-0.01649449932389
3	112951	160	0.025419520058204
3	113702	161	0.025382987146731
3	116236	162	-0.029538370023946
3	117496	163	0.047967763310298
3	119617	164	-0.036431140976493
3	121445	165	-0.025957153635099
3	122969	166	-0.0032012723479422
3	125098	167	-0.040502052237279
3	126579	168	0.046564667832572
3	128948	169	0.019789999022615
3	130323	170	-0.065252698950935
3	132881	171	0.055222398994955
3	133846	172	-0.030015023027079
3	137427	173	-0.026215505525471
3	137740	174	0.08839720253367
3	141282	175	-0.069893335388043
3	141481	176	0.055185264113826
3	144995	177	-0.065922225145624
3	145350	178	0.087206838617567
3	148584	179	-0.076768993306905
3	149109	180	-0.010678268959746
3	152003	181	0.032697637856472
3	153299	182	-0.035042913949583
3	155706	183	0.056637987976428
3	157317	184	-0.051485475411171
3	159832	185	-0.0051690825610429
3	162116	186	0.013754030694253
3	163682	187	0.055453193974682
3	166109	188	0.036245446261018
3	167314	189	0.014694880365861
3	170255	190	-0.023433160292917
3	170892	191	0.0014335568435495
3	173824	192	-0.028144613157492
3	174172	193	-0.047376104288269
3	177883	194	-0.026038370050955
3	178072	195	0.12450628135819
3	181346	196	-0.017115414924918
3	181885	197	-0.090579939130695
3	185256	198	0.011762484691571
3	186303	199	-0.029327350025996
3	189437	200	0.074931087498554
3	190461	201	-0.019132802551614
3	193533	202	0.025798302686308
3	194783	203	-0.016284219196532
3	197300	204	-0.024026204468683
3	198676	205	0.062856554423925
3	200785	206	-0.031970108610112
3	202672	207	0.025649698902853
3	203523	208	-0.054514004834928
3	206611	209	-0.0070207174425008
3	206970	210	0.0482315221522
4	4	3	4.1962556146115
4	5	4	4.6765885426193
4	6	5	5.9822455727343
4	7	6	6.7469998477461
4	8	7	8.9023657158011
4	9	8	3.651678681686
4	10	9	1.6857621818206
4	11	10	2.3276633668785
4	12	11	2.0995306276608
4	13	12	1.7923040941768
4	14	13	2.0305681317735
4	15	14	1.9844951865828
4	16	15	2.2187318873595
4	17	16	2.1416854339172
4	18	17	1.8896148890835
4	19	18	2.0499339673421
4	20	19	0.973
4	21	20	0.973
4	22	21	3.236958348016
4	23	22	7.0694109561587
4	24	23	7.2974163894139
4	25	24	8.7433911631671
4	26	25	1.9831721788576
4	27	26	2.116835898497
4	28	27	1.9244585801898
4	29	28	1.8775583559564
4	30	29	1.9545657515643
4	31	30	2.0931646705581
4	32	31	2.2926746988581
4	33	32	1.993865292131
4	34	33	1.6968396252803
4	35	34	2.4149847823944
4	36	35	1.6983583398882
4	37	36	1.9906198998388
4	38	37	2.3442713071536
4	39	38	1.7018725964397
4	40	39	2.0993392475273
4	41	40	1.9585122345881
4	42	41	2.4691677522194
4	43	42	1.9170802753567
4	44	43	1.8345014514108
4	45	44	2.0838538984303
4	46	45	2.0539801513469
4	47	46	2.0668686152862
4	48	47	1.9813596940184
4	49	48	2.1840996762636
4	50	49	2.0987681125428
4	51	50	1.8592856847688
4	52	51	2.0145873760113
4	53	52	2.0950692067684
4	54	53	1.8080099866508
4	55	54	1.9870007069688
4	56	55	2.2415869227426
4	57	56	2.0614496349521
4	58	57	2.0646020593826
4	59	58	1.8102089718445
4	60	59	2.1453880261281
4	61	60	1.9826536733129
4	62	61	2.0673636130683
4	63	62	2.0538817544551
4	64	63	2.1528270365066
4	65	64	2.0265038417738
4	66	65	1.9764402783138
4	67	66	1.823544423566
4	68	67	2.3663700564531
4	69	68	1.816863137639
4	70	69	2.0780272006119
4	71	70	2.2032702170206
4	72	71	1.8671845150559
4	73	72	0.973
4	74	73	0.973
4	76	74	0.973
4	77	75	0.973
4	78	76	0.973
4	79	77	0.973
4	80	78	0.973
4	81	79	0.973
4	82	80	0.973
4	83	81	0.973
4	84	82	0.973
4	85	83	0.973
4	86	84	0.973
4	209	85	0.973
4	210	86	0.973
4	2247	87	0.973
4	2248	88	0.973
4	5924	89	0.973
4	5925	90	0.973
4	8444	91	0.973
4	8445	92	0.973
4	10601	93	0.973
4	10602	94	0.973
4	12772	95	0.973
4	12773	96	0.973
4	14982	97	0.973
4	14983	98	0.973
4	17314	99	0.973
4	17315	100	0.973
4	19389	101	0.973
4	20095	102	0.973
4	21175	103	0.973
4	22570	104	2.4080817491368
4	23166	105	3.6097150181135
4	25049	106	4.2908662920557
4	25324	107	5.3300190940896
4	27401	108	6.7716083595646
4	27556	109	8.2306431470796
4	30081	110	7.3964630212997
4	30082	111	1.860588941826
4	32688	112	2.3191682825405
4	32689	113	1.6082559213645
4	35668	114	2.3964112552926
4	35669	115	1.9459417714189
4	38394	116	1.8305071297824
4	38555	117	2.2948591543006
4	41226	118	1.864501392037
4	41539	119	2.2554939819334
4	43441	120	1.6499929546933
4	44369	121	2.2175423407028
4	46293	122	2.1928003618159
4	47256	123	1.8378235414933
4	48701	124	2.2444958627995
4	50198	125	2.0596620467147
4	51864	126	1.7148473772176
4	53357	127	2.2535693442964
4	54403	128	2.1772663330844
4	56783	129	2.03505335522
4	57172	130	1.8143600167864
4	60238	131	1.9889788938558
4	60411	132	2.1086394495568
4	63322	133	1.8437464603679
4	63497	134	2.3433727214848
4	66605	135	1.9364419184046
4	66784	136	2.1492226298972
4	69632	137	2.0294771646275
4	70174	138	1.7229059352944
4	72908	139	2.1683401563848
4	73631	140	1.9299350438817
4	76741	141	2.0591585418601
4	77653	142	1.93483150584
4	80198	143	2.1744942583174
4	81480	144	1.8676154314695
4	83610	145	2.2165240828494
4	85529	146	2.1713934336231
4	86943	147	1.6949763447235
4	89159	148	2.2263921380345
4	90155	149	2.0144485842294
4	93048	150	1.9365417253911
4	93602	151	2.1966743274593
4	96779	152	2.0829635180368
4	96780	153	1.8837004459779
4	100867	154	2.0370102380603
4	100868	155	2.0129871808158
4	105148	156	2.110419931536
4	105338	157	2.0425838547677
4	109171	158	1.9822362093805
4	109552	159	1.9743186858806
4	112951	160	2.1175712673834
4	113702	161	2.1201968286833
4	116236	162	1.9326090550002
4	117496	163	2.198281357827
4	119617	164	1.9105438619255
4	121445	165	1.9432522168217
4	122969	166	2.0192487951073
4	125098	167	1.8904505105334
4	126579	168	2.186804891094
4	128948	169	2.09910079412
4	130323	170	1.8077952980462
4	132881	171	2.2169728932173
4	133846	172	1.927996962695
4	137427	173	1.9382242291019
4	137740	174	2.332308444097
4	141282	175	1.7937626116459
4	141481	176	2.2188625575895
4	144995	177	1.8061360510748
4	145350	178	2.3291141609331
4	148584	179	1.7707192427041
4	149109	180	1.9909162058012
4	152003	181	2.1396012505764
4	153299	182	1.9091936403008
4	155706	183	2.2223714080606
4	157317	184	1.8546594182766
4	159832	185	2.0091083236315
4	162116	186	2.0738426567143
4	163682	187	2.2198419657144
4	166109	188	2.159303403111
4	167314	189	2.0882356263937
4	170255	190	1.9573398128122
4	170892	191	2.041236054439
4	173824	192	1.938921752754
4	174172	193	1.8699853415858
4	177883	194	1.9389835799242
4	178072	195	2.4588168705714
4	181346	196	1.9793313817461
4	181885	197	1.7245123863667
4	185256	198	2.0683684304248
4	186303	199	1.9279146762975
4	189437	200	2.2855001251529
4	190461	201	1.9674241382943
4	193533	202	2.1210549022804
4	194783	203	1.977920562053
4	197300	204	1.9496011372065
4	198676	205	2.2483397669929
4	200785	206	1.9258739432659
4	202672	207	2.122314919363
4	203523	208	1.8475381857514
4	206611	209	2.0061291299814
4	206970	210	2.1968365582432
5	5	4	2414.8767583254
5	6	5	2411.8725636174
5	7	6	2407.2970525089
5	8	7	2402.4626210862
5	9	8	2396.3056860371
5	10	9	2388.8743536096
5	11	10	2380.097228827
5	12	11	2370.3507264333
5	13	12	2360.5878487076
5	14	13	2350.7849318213
5	15	14	2341.2418729237
5	16	15	2334.6305580324
5	17	16	2337.3467480277
5	18	17	2348.0519014368
5	19	18	2358.3998493504
5	20	19	2371.2788021446
5	21	20	2385.0887639745
5	22	21	2398.4985461925
5	23	22	2411.2485283293
5	24	23	2420.6905829484
5	25	24	2427.6440450998
5	26	25	2431.3031180431
5	27	26	2432.9057471878
5	28	27	2434.8184996871
5	29	28	2436.9106889558
5	30	29	2438.5031214217
5	31	30	2439.359314087
5	32	31	2440.3695716034
5	33	32	2441.3815056744
5	34	33	2442.392207776
5	35	34	2443.4019859718
5	36	35	2444.4122552489
5	37	36	2445.4251439738
5	38	37	2446.4367595227
5	39	38	2447.4467230743
5	40	39	2448.4574488286
5	41	40	2449.467800329
5	42	41	2450.4780716181
5	43	42	2449.7461704329
5	44	43	2448.6331060936
5	45	44	2447.5209445587
5	46	45	2446.407523851
5	47	46	2445.2946584851
5	48	47	2444.1824360332
5	49	48	2443.0706190476
5	50	49	2441.9568028547
5	51	50	2440.8451110823
5	52	51	2439.8503503047
5	53	52	2438.9091742415
5	54	53	2438.2310626655
5	55	54	2433.9050446447
5	56	55	2424.21615465
5	57	56	2411.3460908785
5	58	57	2397.4706148925
5	59	58	2383.5587488873
5	60	59	2369.633660475
5	61	60	2355.7048479554
5	62	61	2341.7904321874
5	63	62	2327.8638711022
5	64	63	2313.9188814831
5	65	64	2299.9979078089
5	66	65	2286.0826278217
5	67	66	2272.1469357561
5	68	67	2258.2076214411
5	69	68	2244.3155730069
5	70	69	2230.5273849192
5	71	70	2216.7446519198
5	72	71	2203.5167182724
5	73	72	2190.3178840362
5	74	73	2177.2322881214
5	76	74	2166.0575198019
5	77	75	2157.6433227622
5	78	76	2151.7978679298
5	79	77	2148.12850579
5	80	78	2146.1504391922
5	81	79	2145.2176430746
5	82	80	2144.8457426265
5	83	81	2144.7095674569
5	84	82	2144.6606226763
5	85	83	2144.6429435182
5	86	84	2144.6366379777
5	209	85	2144.6343920679
5	210	86	2144.6335903119
5	2247	87	2144.6333007435
5	2248	88	2144.633195825
5	5924	89	2144.6331583896
5	5925	90	2144.633145728
5	8444	91	2144.633145728
5	8445	92	2144.633145728
5	10601	93	2144.633145728
5	10602	94	2144.633145728
5	12772	95	2144.633145728
5	12773	96	2144.633145728
5	14982	97	2144.633145728
5	14983	98	2144.633145728
5	17314	99	2144.633145728
5	17315	100	2144.633145728
5	19389	101	2144.633145728
5	20095	102	2144.633145728
5	21175	103	2144.633145728
5	22570	104	2144.2737731548
5	23166	105	2142.4845030657
5	25049	106	2139.1450912904
5	25324	107	2134.9084280168
5	27401	108	2127.1498446239
5	27556	109	2120.4387787506
5	30081	110	2112.3739584899
5	30082	111	2103.1476856634
5	32688	112	2093.6296136086
5	32689	113	2084.0951295261
5	35668	114	2074.5795109696
5	35669	115	2065.063939429
5	38394	116	2055.5512563158
5	38555	117	2046.0342409692
5	41226	118	2036.0488216643
5	41539	119	2026.0453137617
5	43441	120	2016.0563807572
5	44369	121	2006.0729942947
5	46293	122	1996.084754553
5	47256	123	1986.0883597041
5	48701	124	1976.1061598598
5	50198	125	1966.0952963803
5	51864	126	1956.0879614362
5	53357	127	1946.1023801019
5	54403	128	1936.1053320472
5	56783	129	1926.3527042456
5	57172	130	1916.6182045147
5	60238	131	1906.8886095352
5	60411	132	1897.166170268
5	63322	133	1887.4379485996
5	63497	134	1877.7068856237
5	66605	135	1867.9731698297
5	66784	136	1858.2471925518
5	69632	137	1848.5167856248
5	70174	138	1838.788521806
5	72908	139	1828.8683142798
5	73631	140	1818.7674931467
5	76741	141	1808.6556365595
5	77653	142	1798.6881690308
5	80198	143	1788.7282605756
5	81480	144	1778.7716937171
5	83610	145	1768.8149161959
5	85529	146	1758.8630074445
5	86943	147	1748.9223810565
5	89159	148	1738.9917942254
5	90155	149	1729.0393021918
5	93048	150	1719.0915625348
5	93602	151	1709.1409660121
5	96779	152	1699.1952617619
5	96780	153	1689.2381185202
5	100867	154	1679.2882974617
5	100868	155	1669.3451306712
5	105148	156	1659.395798734
5	105338	157	1649.4270400992
5	109171	158	1639.4901602595
5	109552	159	1629.5258257248
5	112951	160	1619.5642593653
5	113702	161	1609.7603570112
5	116236	162	1599.9661363108
5	117496	163	1590.1778614245
5	119617	164	1580.3881018605
5	121445	165	1570.602626988
5	122969	166	1560.8098117445
5	125098	167	1550.4836916593
5	126579	168	1539.9534314112
5	128948	169	1529.4270368982
5	130323	170	1518.9008283471
5	132881	171	1508.365822218
5	133846	172	1497.4595280867
5	137427	173	1486.0727670016
5	137740	174	1474.7072741856
5	141282	175	1463.3300571679
5	141481	176	1451.973244947
5	144995	177	1439.9153440961
5	145350	178	1427.3310578198
5	148584	179	1414.7634650689
5	149109	180	1402.1708132375
5	152003	181	1389.0050924299
5	153299	182	1375.7702143729
5	155706	183	1362.5414556459
5	157317	184	1349.010179491
5	159832	185	1335.2701743071
5	162116	186	1321.6469308822
5	163682	187	1307.9158464057
5	166109	188	1294.1980641271
5	167314	189	1280.4697999043
5	170255	190	1266.7239699741
5	170892	191	1252.9003067709
5	173824	192	1239.0279867959
5	174172	193	1225.1565965238
5	177883	194	1211.3078312965
5	178072	195	1197.4562417563
5	181346	196	1183.6087147023
5	181885	197	1169.7641281378
5	185256	198	1155.9221098841
5	186303	199	1142.0708794376
5	189437	200	1128.2071759206
5	190461	201	1114.3464645342
5	193533	202	1100.4431767178
5	194783	203	1086.5660427002
5	197300	204	1072.6618603566
5	198676	205	1058.7575469081
5	200785	206	1044.8741090139
5	202672	207	1030.990281827
5	203523	208	1017.1058405035
5	206611	209	1003.197773264
5	206970	210	989.31264378759
6	5	4	1578.4506684253
6	6	5	1579.5537930429
6	7	6	1581.4165868293
6	8	7	1586.3131998433
6	9	8	1592.5493268352
6	10	9	1600.0762428036
6	11	10	1608.9662610246
6	12	11	1618.8381252186
6	13	12	1628.7265753681
6	14	13	1638.6555796713
6	15	14	1648.8046840783
6	16	15	1660.6325348346
6	17	16	1673.301875555
6	18	17	1682.2138796467
6	19	18	1691.5459182626
6	20	19	1695.5099147679
6	21	20	1697.3308411958
6	22	21	1698.6335971011
6	23	22	1699.8391930545
6	24	23	1700.7320023719
6	25	24	1701.2941834759
6	26	25	1708.3978488175
6	27	26	1718.9439634858
6	28	27	1731.5308475178
6	29	28	1745.2985167308
6	30	29	1759.1189484736
6	31	30	1773.033284259
6	32	31	1786.9263172904
6	33	32	1800.8424062571
6	34	33	1814.7415532097
6	35	34	1828.6279946407
6	36	35	1842.5211894047
6	37	36	1856.4504067414
6	38	37	1870.362115399
6	39	38	1884.2511058366
6	40	39	1898.150578063
6	41	40	1912.0449035605
6	42	41	1925.9381259941
6	43	42	1939.8457802581
6	44	43	1953.7382693188
6	45	44	1967.6194902081
6	46	45	1981.5164272105
6	47	46	1995.4064328251
6	48	47	2009.2884140396
6	49	48	2023.165334505
6	50	49	2037.0672076773
6	51	50	2050.942565321
6	52	51	2064.8483957723
6	53	52	2078.754013543
6	54	53	2092.6537938379
6	55	54	2105.6893007364
6	56	55	2115.3934075218
6	57	56	2120.5034639826
6	58	57	2120.5707901428
6	59	58	2120.100904949
6	60	59	2119.6305731572
6	61	60	2119.160115581
6	62	61	2118.6901442679
6	63	62	2118.2197627351
6	64	63	2117.748758764
6	65	64	2117.2785659507
6	66	65	2116.8085654471
6	67	66	2116.3378755087
6	68	67	2115.8670632252
6	69	68	2115.0711128758
6	70	69	2113.1158412341
6	71	70	2111.1613431666
6	72	71	2106.8160774671
6	73	72	2102.339647443
6	74	73	2097.6526627708
6	76	74	2091.0742531046
6	77	75	2086.1209481629
6	78	76	2082.6798211997
6	79	77	2080.5197256459
6	80	78	2079.3552690716
6	81	79	2078.806146726
6	82	80	2078.5872148043
6	83	81	2078.5070506316
6	84	82	2078.4782376122
6	85	83	2078.4678301709
6	86	84	2078.4641181994
6	209	85	2078.4627960678
6	210	86	2078.4623240866
6	2247	87	2078.4621536219
6	2248	88	2078.4620918585
6	5924	89	2078.4620698206
6	5925	90	2078.4620623672
6	8444	91	2078.4620623672
6	8445	92	2078.4620623672
6	10601	93	2078.4620623672
6	10602	94	2078.4620623672
6	12772	95	2078.4620623672
6	12773	96	2078.4620623672
6	14982	97	2078.4620623672
6	14983	98	2078.4620623672
6	17314	99	2078.4620623672
6	17315	100	2078.4620623672
6	19389	101	2078.4620623672
6	20095	102	2078.4620623672
6	21175	103	2078.4620623672
6	22570	104	2078.2505054073
6	23166	105	2077.1971903574
6	25049	106	2075.0036922991
6	25324	107	2070.9101189561
6	27401	108	2067.451393161
6	27556	109	2060.2880728487
6	30081	110	2051.6797695057
6	30082	111	2041.8317440515
6	32688	112	2031.6722552059
6	32689	113	2021.4952483354
6	35668	114	2011.3383783279
6	35669	115	2001.1815585038
6	38394	116	1991.0278217569
6	38555	117	1980.8694608295
6	41226	118	1971.1272513829
6	41539	119	1961.4031305341
6	43441	120	1951.6931775231
6	44369	121	1941.9886161452
6	46293	122	1932.2793370346
6	47256	123	1922.5621305797
6	48701	124	1912.8587226793
6	50198	125	1903.1274516871
6	51864	126	1893.3996106824
6	53357	127	1883.692915733
6	54403	128	1873.9750743154
6	56783	129	1864.0195214991
6	57172	130	1854.0443547452
6	60238	131	1844.074214004
6	60411	132	1834.1114058858
6	63322	133	1824.1426724084
6	63497	134	1814.1710273772
6	66605	135	1804.1966639422
6	66784	136	1794.2302303426
6	69632	137	1784.2592575802
6	70174	138	1774.2904809099
6	72908	139	1764.530263341
6	73631	140	1754.9389134487
6	76741	141	1745.3370847162
6	77653	142	1735.6222685445
6	80198	143	1725.8613919653
6	81480	144	1716.1037902068
6	83610	145	1706.3459819956
6	85529	146	1696.59294526
6	86943	147	1686.8509654282
6	89159	148	1677.1188245304
6	90155	149	1667.3652161686
6	93048	150	1657.616265215
6	93602	151	1647.864514485
6	96779	152	1638.1175582642
6	96780	153	1628.3593916409
6	100867	154	1618.6084008785
6	100868	155	1608.86393141
6	105148	156	1599.1134199956
6	105338	157	1589.3438700931
6	109171	158	1579.6055619419
6	109552	159	1569.8403477306
6	112951	160	1560.0778463781
6	113702	161	1550.3186663017
6	116236	162	1540.4318855871
6	117496	163	1530.5511068776
6	119617	164	1520.6688294597
6	121445	165	1510.7908772258
6	122969	166	1500.9055152507
6	125098	167	1491.5812753187
6	126579	168	1482.4736136403
6	128948	169	1473.3692954499
6	130323	170	1464.265138099
6	132881	171	1455.1533716898
6	133846	172	1446.5303078769
6	137427	173	1438.5113174282
6	137740	174	1430.507304905
6	141282	175	1422.4950357517
6	141481	176	1414.4971364327
6	144995	177	1407.6394476313
6	145350	178	1401.7064638613
6	148584	179	1395.7813504161
6	149109	180	1389.8444226244
6	152003	181	1385.4198622629
6	153299	182	1381.1618362684
6	155706	183	1376.9057790311
6	157317	184	1374.0913682543
6	159832	185	1371.891784966
6	162116	186	1369.5007762583
6	163682	187	1367.1808377933
6	166109	188	1364.7414870188
6	167314	189	1362.4237031918
6	170255	190	1360.3332787612
6	170892	191	1358.5745666958
6	173824	192	1357.1124603171
6	174172	193	1355.6504519265
6	177883	194	1354.1908281557
6	178072	195	1352.730906711
6	181346	196	1351.2714134408
6	181885	197	1349.8122300906
6	185256	198	1348.353317434
6	186303	199	1346.8934338363
6	189437	200	1345.4322356097
6	190461	201	1344.0749135222
6	193533	202	1343.1176841212
6	194783	203	1342.1531283362
6	197300	204	1341.0261107842
6	198676	205	1339.8326820247
6	200785	206	1338.641045046
6	202672	207	1337.4493746543
6	203523	208	1336.2576515498
6	206611	209	1335.0639005965
6	206970	210	1333.8721184274
7	6	5	4.0332649588119
7	7	6	5.8265110515686
7	8	7	7.7852127750962
7	9	8	9.5658873894228
7	10	9	11.450149483434
7	11	10	13.391487500134
7	12	11	13.949883621705
7	13	12	13.87602620427
7	14	13	13.885232782268
7	15	14	13.987373048679
7	16	15	13.890608048609
7	17	16	13.887004709987
7	18	17	13.926980708602
7	19	18	13.89086526999
7	20	19	13.965056618985
7	21	20	13.946692067499
7	22	21	13.097137451398
7	23	22	11.939132677032
7	24	23	7.4783001788439
7	25	24	7.8592269216425
7	26	25	9.5749213322898
7	27	26	11.610942506126
7	28	27	13.581243869506
7	29	28	13.973211987913
7	30	29	13.918392209036
7	31	30	13.928662607018
7	32	31	13.985277111761
7	33	32	13.95532245066
7	34	33	13.938708755139
7	35	34	13.908545650935
7	36	35	13.927478809105
7	37	36	13.897819017794
7	38	37	13.989504252097
7	39	38	13.94374062394
7	40	39	13.903882643976
7	41	40	13.969130632835
7	42	41	13.884234787642
7	43	42	13.881978327318
7	44	43	13.927070145076
7	45	44	13.922745489741
7	46	45	13.95273740395
7	47	46	13.968270483359
7	48	47	13.918685564972
7	49	48	13.921468284922
7	50	49	13.897015957548
7	51	50	13.964752228069
7	52	51	13.91147568828
7	53	52	13.974545761354
7	54	53	13.965476403411
7	55	54	13.989670229855
7	56	55	13.951804798429
7	57	56	13.892850009208
7	58	57	13.958218119799
7	59	58	13.933717581006
7	60	59	13.982012811573
7	61	60	13.954506225567
7	62	61	13.954468280503
7	63	62	13.914126337939
7	64	63	13.998578815588
7	65	64	13.932968401979
7	66	65	13.954534002345
7	67	66	13.998651232829
7	68	67	13.999179182528
7	69	68	13.886099785112
7	70	69	13.881868150404
7	71	70	13.887636745651
7	72	71	13.978686858166
7	73	72	13.970344127666
7	74	73	13.925369204739
7	76	74	11.503028205973
7	77	75	8.3084939661969
7	78	76	5.5757626568646
7	79	77	3.3211618849162
7	80	78	1.6266335353547
7	81	79	0.70715133051593
7	82	80	0.26232084274652
7	83	81	0.09568805664727
7	84	82	0.033835632228035
7	85	83	0.012538818862259
7	86	84	0.0044949869302171
7	209	85	0.0015515939487704
7	210	86	0.00056220080715219
7	2247	87	0.00020206205078003
7	2248	88	7.4991505956587e-05
7	5924	89	2.6407687680597e-05
7	5925	90	0
7	8444	91	0
7	8445	92	0
7	10601	93	0
7	10602	94	0
7	12772	95	0
7	12773	96	0
7	14982	97	0
7	14983	98	0
7	17314	99	0
7	17315	100	0
7	19389	101	0
7	20095	102	0
7	21175	103	0
7	22570	104	1.0439452583582
7	23166	105	2.9887931266809
7	25049	106	4.8097910129962
7	25324	107	6.8174813134459
7	27401	108	8.7692185113022
7	27556	109	10.59958561982
7	30081	110	12.631112927732
7	30082	111	13.911355651631
7	32688	112	13.959096302334
7	32689	113	13.985669557508
7	35668	114	13.912786148109
7	35669	115	13.880683887878
7	38394	116	13.921652116431
7	38555	117	13.904044170342
7	41226	118	13.928399279253
7	41539	119	13.947232982973
7	43441	120	13.957098587838
7	44369	121	13.872669367229
7	46293	122	13.988834063003
7	47256	123	13.962365872057
7	48701	124	13.978590016267
7	50198	125	13.996544766314
7	51864	126	13.909791962707
7	53357	127	13.955426083545
7	54403	128	13.916719595476
7	56783	129	13.96472714375
7	57172	130	13.96898798909
7	60238	131	13.902139999291
7	60411	132	13.980534003156
7	63322	133	13.976162572829
7	63497	134	13.902045026864
7	66605	135	13.998268041729
7	66784	136	13.981719435903
7	69632	137	13.904254397955
7	70174	138	13.91068194794
7	72908	139	13.901592570813
7	73631	140	13.871256113877
7	76741	141	13.9870051032
7	77653	142	13.963580676371
7	80198	143	13.94083829636
7	81480	144	13.980116114989
7	83610	145	13.977826093403
7	85529	146	13.954251742228
7	86943	147	13.894492452065
7	89159	148	13.893317757975
7	90155	149	13.907786323659
7	93048	150	13.910502062014
7	93602	151	13.881678228341
7	96779	152	13.899310339873
7	96780	153	13.872349197764
7	100867	154	13.895146320874
7	100868	155	13.975084472168
7	105148	156	13.915615806044
7	105338	157	13.983601140513
7	109171	158	13.901822753502
7	109552	159	13.971918848483
7	112951	160	13.912339184245
7	113702	161	13.950011306256
7	116236	162	13.998481679212
7	117496	163	13.912870613218
7	119617	164	13.92431177363
7	121445	165	13.926093731704
7	122969	166	13.942163653092
7	125098	167	13.870273206236
7	126579	168	13.91296996288
7	128948	169	13.924073988835
7	130323	170	13.873827367951
7	132881	171	13.904585749956
7	133846	172	13.963504586534
7	137427	173	13.958675095132
7	137740	174	13.912477784399
7	141282	175	13.93135163076
7	141481	176	13.894309638196
7	144995	177	13.954050166991
7	145350	178	13.925384580451
7	148584	179	13.975843318729
7	149109	180	13.982161691794
7	152003	181	13.975318462085
7	153299	182	13.982640373055
7	155706	183	13.960604042404
7	157317	184	13.879971070779
7	159832	185	13.926293796084
7	162116	186	13.964736901906
7	163682	187	13.895597046474
7	166109	188	13.963052310185
7	167314	189	13.985246499267
7	170255	190	13.896051402476
7	170892	191	13.907070836832
7	173824	192	13.964823270719
7	174172	193	13.989227149251
7	177883	194	13.883100875726
7	178072	195	13.903078761017
7	181346	196	13.910346382333
7	181885	197	13.915403508949
7	185256	198	13.884319989504
7	186303	199	13.885123365021
7	189437	200	13.999113636422
7	190461	201	13.888233879788
7	193533	202	13.951418514275
7	194783	203	13.915740113808
7	197300	204	13.996604662205
7	198676	205	13.992994271445
7	200785	206	13.900581596459
7	202672	207	13.987655946179
7	203523	208	13.896499260366
7	206611	209	13.993835026741
7	206970	210	13.929896807359
8	7	6	1.7932460927567
8	8	7	1.9587017235276
8	9	8	1.7806746143266
8	10	9	1.8842620940111
8	11	10	1.9413380167005
8	12	11	0.5583961215709
8	13	12	-0.073857417434921
8	14	13	0.0092065779981212
8	15	14	0.10214026641101
8	16	15	-0.096765000070445
8	17	16	-0.0036033386224883
8	18	17	0.039975998615846
8	19	18	-0.036115438612178
8	20	19	0.074191348995083
8	21	20	-0.018364551486448
8	22	21	-0.84955461610103
8	23	22	-1.1580047743662
8	24	23	-4.4608324981877
8	25	24	0.38092674279862
8	26	25	1.7156944106473
8	27	26	2.0360211738362
8	28	27	1.9703013633797
8	29	28	0.39196811840698
8	30	29	-0.054819778876846
8	31	30	0.010270397982096
8	32	31	0.056614504742901
8	33	32	-0.029954661100637
8	34	33	-0.016613695521373
8	35	34	-0.030163104203529
8	36	35	0.018933158169965
8	37	36	-0.029659791311714
8	38	37	0.091685234303586
8	39	38	-0.045763628156855
8	40	39	-0.039857979963999
8	41	40	0.065247988859191
8	42	41	-0.08489584519295
8	43	42	-0.0022564603248618
8	44	43	0.045091817758511
8	45	44	-0.0043246553349299
8	46	45	0.029991914208512
8	47	46	0.015533079409506
8	48	47	-0.0495849183877
8	49	48	0.0027827199501917
8	50	49	-0.024452327373437
8	51	50	0.067736270520836
8	52	51	-0.053276539789513
8	53	52	0.063070073074195
8	54	53	-0.0090693579427903
8	55	54	0.024193826443517
8	56	55	-0.037865431425162
8	57	56	-0.058954789221753
8	58	57	0.065368110591081
8	59	58	-0.024500538792926
8	60	59	0.048295230567454
8	61	60	-0.027506586005911
8	62	61	-3.7945064249811e-05
8	63	62	-0.040341942564119
8	64	63	0.08445247764932
8	65	64	-0.065610413609539
8	66	65	0.021565600365866
8	67	66	0.044117230484263
8	68	67	0.0005279496987356
8	69	68	-0.11307939741528
8	70	69	-0.0042316347081215
8	71	70	0.0057685952470639
8	72	71	0.091050112515221
8	73	72	-0.0083427305007344
8	74	73	-0.044974922926631
8	76	74	-2.4223409987658
8	77	75	-3.1945342397763
8	78	76	-2.7327313093324
8	79	77	-2.2546007719484
8	80	78	-1.6945283495614
8	81	79	-0.91948220483881
8	82	80	-0.44483048776941
8	83	81	-0.16663278609925
8	84	82	-0.061852424419235
8	85	83	-0.021296813365776
8	86	84	-0.0080438319320418
8	209	85	-0.0029433929814467
8	210	86	-0.0009893931416182
8	2247	87	-0.00036013875637216
8	2248	88	-0.00012707054482344
8	5924	89	-4.8583818275989e-05
8	5925	90	-2.6407687680597e-05
8	8444	91	0
8	8445	92	0
8	10601	93	0
8	10602	94	0
8	12772	95	0
8	12773	96	0
8	14982	97	0
8	14983	98	0
8	17314	99	0
8	17315	100	0
8	19389	101	0
8	20095	102	0
8	21175	103	0
8	22570	104	1.0439452583582
8	23166	105	1.9448478683227
8	25049	106	1.8209978863153
8	25324	107	2.0076903004496
8	27401	108	1.9517371978564
8	27556	109	1.8303671085183
8	30081	110	2.0315273079113
8	30082	111	1.2802427238992
8	32688	112	0.047740650703199
8	32689	113	0.026573255173863
8	35668	114	-0.072883409399074
8	35669	115	-0.03210226023104
8	38394	116	0.040968228552956
8	38555	117	-0.017607946088537
8	41226	118	0.024355108910239
8	41539	119	0.018833703720011
8	43441	120	0.0098656048648991
8	44369	121	-0.084429220608435
8	46293	122	0.1161646957742
8	47256	123	-0.026468190946616
8	48701	124	0.016224144210573
8	50198	125	0.017954750047066
8	51864	126	-0.086752803607379
8	53357	127	0.045634120837786
8	54403	128	-0.038706488069147
8	56783	129	0.048007548274473
8	57172	130	0.0042608453403226
8	60238	131	-0.066847989798989
8	60411	132	0.078394003864377
8	63322	133	-0.0043714303267191
8	63497	134	-0.074117545965127
8	66605	135	0.096223014865537
8	66784	136	-0.016548605826683
8	69632	137	-0.077465037947986
8	70174	138	0.0064275499852364
8	72908	139	-0.0090893771266565
8	73631	140	-0.030336456936784
8	76741	141	0.11574898932362
8	77653	142	-0.023424426829443
8	80198	143	-0.022742380010895
8	81480	144	0.039277818629053
8	83610	145	-0.0022900215862336
8	85529	146	-0.023574351174757
8	86943	147	-0.059759290162473
8	89159	148	-0.0011746940901496
8	90155	149	0.014468565683346
8	93048	150	0.0027157383551817
8	93602	151	-0.028823833672796
8	96779	152	0.017632111532148
8	96780	153	-0.026961142108776
8	100867	154	0.022797123109923
8	100868	155	0.0799381512939
8	105148	156	-0.059468666124157
8	105338	157	0.067985334468538
8	109171	158	-0.081778387010562
8	109552	159	0.070096094980835
8	112951	160	-0.059579664238262
8	113702	161	0.037672122011426
8	116236	162	0.048470372955782
8	117496	163	-0.085611065994017
8	119617	164	0.011441160412506
8	121445	165	0.0017819580738418
8	122969	166	0.016069921387826
8	125098	167	-0.071890446855686
8	126579	168	0.042696756643709
8	128948	169	0.011104025954845
8	130323	170	-0.0502466208837
8	132881	171	0.030758382005152
8	133846	172	0.058918836577796
8	137427	173	-0.0048294914024876
8	137740	174	-0.046197310732678
8	141282	175	0.018873846360949
8	141481	176	-0.037041992563754
8	144995	177	0.059740528794936
8	145350	178	-0.02866558654001
8	148584	179	0.050458738277666
8	149109	180	0.0063183730654419
8	152003	181	-0.0068432297091938
8	153299	182	0.0073219109699139
8	155706	183	-0.022036330651027
8	157317	184	-0.08063297162531
8	159832	185	0.046322725305799
8	162116	186	0.038443105821498
8	163682	187	-0.069139855431859
8	166109	188	0.067455263710581
8	167314	189	0.022194189082365
8	170255	190	-0.089195096790791
8	170892	191	0.011019434356131
8	173824	192	0.057752433887218
8	174172	193	0.024403878531883
8	177883	194	-0.10612627352588
8	178072	195	0.019977885291446
8	181346	196	0.0072676213155507
8	181885	197	0.0050571266165935
8	185256	198	-0.031083519444801
8	186303	199	0.00080337551655241
8	189437	200	0.11399027140112
8	190461	201	-0.11087975663366
8	193533	202	0.06318463448668
8	194783	203	-0.03567840046715
8	197300	204	0.080864548396784
8	198676	205	-0.003610390760004
8	200785	206	-0.092412674985827
8	202672	207	0.087074349720497
8	203523	208	-0.091156685813329
8	206611	209	0.097335766374599
8	206970	210	-0.063938219381962
9	7	6	3.9274001426868
9	8	7	5.2041356246368
9	9	8	5.7574507674447
9	10	9	7.0006276784153
9	11	10	8.2432295261252
9	12	11	3.9110016848773
9	13	12	1.7792042638201
9	14	13	2.0579365757541
9	15	14	2.3818636967155
9	16	15	1.7037407999188
9	17	16	2.0152488537881
9	18	17	2.1655550639215
9	19	18	1.906797412239
9	20	19	2.2849654495652
9	21	20	1.9716653983805
9	22	21	0.973
9	23	22	0.973
9	24	23	0.973
9	25	24	2.2554772362628
9	26	25	5.6120472675651
9	27	26	7.5119842129131
9	28	27	8.4455276517466
9	29	28	3.3560730035355
9	30	29	1.8466200733259
9	31	30	2.0660268329645
9	32	31	2.2281549844786
9	33	32	1.9335288120447
9	34	33	1.9767670407741
9	35	34	1.9283950769156
9	36	35	2.0949799016024
9	37	36	1.9290667558988
9	38	37	2.3468857079218
9	39	38	1.8793040227889
9	40	39	1.8954681876561
9	41	40	2.2553467174174
9	42	41	1.7429567241042
9	43	42	2.0192482635441
9	44	43	2.1827359052182
9	45	44	2.0164367628106
9	46	45	2.1348602115454
9	47	46	2.0878872407227
9	48	47	1.8642059318509
9	49	48	2.0401536442479
9	50	49	1.9464315106901
9	51	50	2.2632042711189
9	52	51	1.851180617826
9	53	52	2.2486511283506
9	54	53	2.0047870143605
9	55	54	2.1193583924862
9	56	55	1.9065956504161
9	57	56	1.8305118457369
9	58	57	2.2544630998412
9	59	58	1.9497933768092
9	60	59	2.199742909699
9	61	60	1.9416842431598
9	62	61	2.0340583936544
9	63	62	1.8947902862501
9	64	63	2.3236156337703
9	65	64	1.8116807487081
9	66	65	2.1067187558746
9	67	66	2.1875465210812
9	68	67	2.0405446651404
9	69	68	1.6487905152147
9	70	69	2.0126291187762
9	71	70	2.0466796925005
9	72	71	2.3433989621326
9	73	72	2.0077208397811
9	74	73	1.8802787050508
9	76	74	0.973
9	77	75	0.973
9	78	76	0.973
9	79	77	0.973
9	80	78	0.973
9	81	79	0.973
9	82	80	0.973
9	83	81	0.973
9	84	82	1.1111278658488
9	85	83	1.1105405169147
9	86	84	1.1102081243603
9	209	85	1.1100737482573
9	210	86	1.1100269865137
9	2247	87	1.1100097299357
9	2248	88	1.1100036152937
9	5924	89	1.1100012735977
9	5925	90	0.973
9	8444	91	0.973
9	8445	92	0.973
9	10601	93	0.973
9	10602	94	0.973
9	12772	95	0.973
9	12773	96	0.973
9	14982	97	0.973
9	14983	98	0.973
9	17314	99	0.973
9	17315	100	0.973
9	19389	101	0.973
9	20095	102	0.973
9	21175	103	0.973
9	22570	104	1.4231120503168
9	23166	105	2.6575180158133
9	25049	106	3.4631305726829
9	25324	107	4.7668080271271
9	27401	108	5.7200880149142
[...]
305	163682	187	2402.5476479725
305	166109	188	2396.4928133256
305	167314	189	2389.0447849606
305	170255	190	2380.3407425438
305	170892	191	2371.3338199223
305	173824	192	2362.3148537182
305	174172	193	2353.2946643895
305	177883	194	2344.2709471635
305	178072	195	2336.2301437096
305	181346	196	2333.919498444
305	181885	197	2341.9483397645
305	185256	198	2351.4214770815
305	186303	199	2360.4795864022
305	189437	200	2372.114107182
305	190461	201	2383.8067861595
305	193533	202	2395.3776121493
305	194783	203	2405.4849274909
305	197300	204	2413.957652063
305	198676	205	2422.1518295684
305	200785	206	2430.0451528945
305	202672	207	2435.8747074968
305	203523	208	2435.9514997532
305	206611	209	2436.0385750942
305	206970	210	2436.1266061791
306	157317	184	1578.4609022532
306	159832	185	1579.5649671536
306	162116	186	1581.4022760699
306	163682	187	1586.2270793207
306	166109	188	1592.3597926712
306	167314	189	1599.9036193248
306	170255	190	1608.7196151773
306	170892	191	1617.8423869507
306	173824	192	1626.9773572134
306	174172	193	1636.1135663344
306	177883	194	1645.2533487277
306	178072	195	1655.2204775084
306	181346	196	1667.6111044157
306	181885	197	1677.0179376109
306	185256	198	1685.2526473617
306	186303	199	1693.4214772275
306	189437	200	1695.6347664902
306	190461	201	1697.178257226
306	193533	202	1698.3384919455
306	194783	203	1699.294206107
306	197300	204	1700.0953587955
306	198676	205	1700.8701059436
306	200785	206	1700.9690599386
306	202672	207	1694.124538851
306	203523	208	1681.964011685
306	206611	209	1668.1750946641
306	206970	210	1654.2348297276
307	159832	185	4.0535704963822
307	162116	186	5.6761520805215
307	163682	187	7.6591016401379
307	166109	188	9.4970729827607
307	167314	189	11.453785410165
307	170255	190	12.80230804232
307	170892	191	12.764369245691
307	173824	192	12.769040976458
307	174172	193	12.861211143965
307	177883	194	12.869757074549
307	178072	195	12.83330532492
307	181346	196	12.763403466824
307	181885	197	12.762094437611
307	185256	198	12.412786382603
307	186303	199	12.155167787081
307	189437	200	11.849884619377
307	190461	201	11.806147445233
307	193533	202	11.542898944692
307	194783	203	8.7229321356159
307	197300	204	8.9621023510226
307	198676	205	6.5000474570921
307	200785	206	8.988430543148
307	202672	207	11.010160390746
307	203523	208	13.073254586027
307	206611	209	13.92196550281
307	206970	210	13.964885199438
308	162116	186	1.6225815841393
308	163682	187	1.9829495596164
308	166109	188	1.8379713426228
308	167314	189	1.9567124274047
308	170255	190	1.3485226321546
308	170892	191	-0.037938796628731
308	173824	192	0.0046717307670043
308	174172	193	0.092170167507138
308	177883	194	0.0085459305834945
308	178072	195	-0.036451749629341
308	181346	196	-0.069901858095545
308	181885	197	-0.0013090292129068
308	185256	198	-0.34930805500798
308	186303	199	-0.25761859552214
308	189437	200	-0.30528316770363
308	190461	201	-0.043737174144244
308	193533	202	-0.26324850054063
308	194783	203	-2.8199668090766
308	197300	204	0.23917021540668
308	198676	205	-2.4620548939305
308	200785	206	2.488383086056
308	202672	207	2.0217298475979
308	203523	208	2.0630941952812
308	206611	209	0.84871091678312
308	206970	210	0.042919696627651
309	162116	186	3.6203264448731
309	163682	187	5.1811951609128
309	166109	188	5.8540078195991
309	167314	189	7.2025754942959
309	170255	190	6.0820934264048
309	170892	191	1.8011645533551
309	173824	192	1.9326852581133
309	174172	193	2.212636264755
309	177883	194	1.9542604777574
309	178072	195	1.811588463671
309	181346	196	1.7027654440803
309	181885	197	1.9136338030037
309	185256	198	0.973
309	186303	199	0.973
309	189437	200	0.973
309	190461	201	1.7071027790991
309	193533	202	0.973
309	194783	203	0.973
309	197300	204	2.1254046451016
309	198676	205	0.973
309	200785	206	7.0010514213204
309	202672	207	7.1289837983405
309	203523	208	8.4471572404061
309	206611	209	4.8784576155366
309	206970	210	2.1796989370118
310	163682	187	2414.874922529
310	166109	188	2411.940309145
310	167314	189	2407.3389265246
310	170255	190	2402.4848892404
310	170892	191	2396.230194611
310	173824	192	2388.6089182764
310	174172	193	2379.6770245645
310	177883	194	2370.3004573345
310	178072	195	2360.93492154
310	181346	196	2351.5758114891
310	181885	197	2342.3013740384
310	185256	198	2335.0093851481
310	186303	199	2335.2707812634
310	189437	200	2345.4630882504
310	190461	201	2355.3793800437
310	193533	202	2366.6566852746
310	194783	203	2379.7137775746
310	197300	204	2391.4180236114
310	198676	205	2402.3738832617
310	200785	206	2412.0894033224
310	202672	207	2421.129466958
310	203523	208	2428.3717471298
310	206611	209	2435.5152416986
310	206970	210	2435.929716961
311	163682	187	1578.4513425203
311	166109	188	1579.528917239
311	167314	189	1581.3741742196
311	170255	190	1586.2906452706
311	170892	191	1592.6257892493
311	173824	192	1600.3450922286
311	174172	193	1609.3918700526
311	177883	194	1618.8890408901
311	178072	195	1628.3750384031
311	181346	196	1637.8545275237
311	181885	197	1647.4483577488
311	185256	198	1658.3510909379
311	186303	199	1671.2969952067
311	189437	200	1679.8792230729
311	190461	201	1688.8219833877
311	193533	202	1694.819054272
311	194783	203	1696.691097863
311	197300	204	1697.9640864078
311	198676	205	1699.0000360999
311	200785	206	1699.9187034005
311	202672	207	1700.7735017864
311	203523	208	1701.0481512556
311	206611	209	1696.6083156774
311	206970	210	1685.41345111
312	166109	188	3.9933415801216
312	167314	189	5.8384167631527
312	170255	190	7.8290371935649
312	170892	191	9.7256067025473
312	173824	192	11.701595079726
312	174172	193	13.323921995627
312	177883	194	13.370757997349
312	178072	195	13.270901173354
312	181346	196	13.383737026128
312	181885	197	13.297213674722
312	185256	198	13.359095525158
312	186303	199	13.290651976186
312	189437	200	13.369271817043
312	190461	201	13.35020827354
312	193533	202	13.344077456581
312	194783	203	12.546021625338
312	197300	204	11.591883493559
312	198676	205	9.8299662160035
312	200785	206	10.161490405215
312	202672	207	7.1998965310653
312	203523	208	8.2194725432967
312	206611	209	10.223329383926
312	206970	210	12.124696902793
313	167314	189	1.8450751830311
313	170255	190	1.9906204304122
313	170892	191	1.8965695089824
313	173824	192	1.975988377179
313	174172	193	1.6223269159011
313	177883	194	0.046836001721678
313	178072	195	-0.099856823994779
313	181346	196	0.11283585277386
313	181885	197	-0.086523351406214
313	185256	198	0.061881850436331
313	186303	199	-0.068443548972718
313	189437	200	0.078619840857572
313	190461	201	-0.019063543502707
313	193533	202	-0.0061308169597751
313	194783	203	-0.79805583124252
313	197300	204	-0.95413813177919
313	198676	205	-1.7619172775554
313	200785	206	0.33152418921133
313	202672	207	-2.9615938741495
313	203523	208	1.0195760122314
313	206611	209	2.0038568406296
313	206970	210	1.9013675188669
314	167314	189	4.0061585935048
314	170255	190	5.287901331791
314	170892	191	6.1094591359595
314	173824	192	7.3949547080941
314	174172	193	7.1806523037796
314	177883	194	2.126748687525
314	178072	195	1.6467280591012
314	181346	196	2.3410462165997
314	181885	197	1.6913797967484
314	185256	198	2.1739178706323
314	186303	199	1.7487891662407
314	189437	200	2.2289939484326
314	190461	201	1.9124836182168
314	193533	202	1.9535039993181
314	194783	203	0.973
314	197300	204	0.973
314	198676	205	0.973
314	200785	206	2.5089932800483
314	202672	207	0.973
314	203523	208	3.5774767067858
314	206611	209	6.6390281520023
314	206970	210	7.4154490103568
315	170255	190	2414.8924727431
315	170892	191	2411.9171569326
315	173824	192	2407.2273780925
315	174172	193	2402.1626974554
315	177883	194	2395.6609385395
315	178072	195	2387.812992705
315	181346	196	2378.5780671332
315	181885	197	2369.0256665715
315	185256	198	2359.4704912301
315	186303	199	2349.9312968751
315	189437	200	2340.7087210878
315	190461	201	2334.539744006
315	193533	202	2337.5199473745
315	194783	203	2347.9749360228
315	197300	204	2358.0788292876
315	198676	205	2370.5114213589
315	200785	206	2383.9837213439
315	202672	207	2396.805029723
315	203523	208	2407.4423037686
315	206611	209	2417.7651938504
315	206970	210	2425.0982787146
316	170255	190	1578.4448981732
316	170892	191	1579.5374186104
316	173824	192	1581.4871574137
316	174172	193	1586.6169811618
316	177883	194	1593.2023672266
316	178072	195	1601.1512551811
316	181346	196	1610.5049625328
316	181885	197	1620.1802283116
316	185256	198	1629.8583045593
316	186303	199	1639.5201942706
316	189437	200	1649.4872014094
316	190461	201	1661.1794521436
316	193533	202	1673.441744444
316	194783	203	1682.1444703089
316	197300	204	1691.2564143296
316	198676	205	1695.3952155756
316	200785	206	1697.1993164616
316	202672	207	1698.4734638091
316	203523	208	1699.4792891052
316	206611	209	1700.4553872971
316	206970	210	1701.0407243809
317	170892	191	4.0333878628821
317	173824	192	6.0541866060701
317	174172	193	8.242381120916
317	177883	194	10.124273008125
317	178072	195	12.199381327366
317	181346	196	13.616085757734
317	181885	197	13.560266072747
317	185256	198	13.588653963794
317	186303	199	13.562919534605
317	189437	200	13.56708602556
317	190461	201	13.635066131537
317	193533	202	13.54746060213
317	194783	203	13.641535790038
317	197300	204	13.58063380534
317	198676	205	13.55816150915
317	200785	206	13.609670223986
317	202672	207	11.549539180163
317	203523	208	10.72984043057
317	206611	209	9.1232222952198
317	206970	210	7.4632222952198
318	173824	192	2.0207987431879
318	174172	193	2.188194514846
318	177883	194	1.8818918872089
318	178072	195	2.0751083192416
318	181346	196	1.4167044303671
318	181885	197	-0.05581968498649
318	185256	198	0.028387891047169
318	186303	199	-0.02573442918947
318	189437	200	0.0041664909548125
318	190461	201	0.067980105977039
318	193533	202	-0.087605529406574
318	194783	203	0.09407518790802
318	197300	204	-0.060901984698139
318	198676	205	-0.022472296189516
318	200785	206	0.051508714836091
318	202672	207	-2.0601310438232
318	203523	208	-0.81969874959333
318	206611	209	-1.6066181353502
318	206970	210	-1.66
319	173824	192	4.3710178493702
319	174172	193	5.906000961618
319	177883	194	6.2859825723043
319	178072	195	7.9671427227446
319	181346	196	6.6489230366705
319	181885	197	1.8120713819093
319	185256	198	2.090277099586
319	186303	199	1.9106375170267
319	189437	200	2.0087912149464
319	190461	201	2.2253187892912
319	193533	202	1.7071951485333
319	194783	203	2.3118608349527
319	197300	204	1.7971854000617
319	198676	205	1.9208540946001
319	200785	206	2.1683465460337
319	202672	207	0.973
319	203523	208	0.973
319	206611	209	0.973
319	206970	210	0.973
320	174172	193	2414.8488825009
320	177883	194	2411.8352393082
320	178072	195	2407.0637515788
320	181346	196	2402.106385262
320	181885	197	2395.8824689761
320	185256	198	2388.3025968735
320	186303	199	2379.355763455
320	189437	200	2369.5745826376
320	190461	201	2359.7856173264
320	193533	202	2349.9902308274
320	194783	203	2340.5556016868
320	197300	204	2334.4483465413
320	198676	205	2338.2375205886
320	200785	206	2348.8982199756
320	202672	207	2359.2495000615
320	203523	208	2372.4203179018
320	206611	209	2386.2462770555
320	206970	210	2398.8278768243
321	174172	193	1578.4609042825
321	177883	194	1579.5674983347
321	178072	195	1581.6528885299
321	181346	196	1586.6740176557
321	181885	197	1592.9779874133
321	185256	198	1600.6553536095
321	186303	199	1609.7172632981
321	189437	200	1619.624251958
321	190461	201	1629.5391252376
321	193533	202	1639.4605022958
321	194783	203	1649.683218074
321	197300	204	1661.7298831446
321	198676	205	1674.021227967
321	200785	206	1682.9771109037
321	202672	207	1692.3121545557
321	203523	208	1695.6805353221
321	206611	209	1697.4686110839
321	206970	210	1698.6647375114
322	177883	194	4.1635171351703
322	178072	195	6.0296640723204
322	181346	196	7.7939941338245
322	181885	197	9.6774191626912
322	185256	198	11.585202738245
322	186303	199	13.674082209447
322	189437	200	13.911485388745
322	190461	201	13.96093720891
322	193533	202	13.988453239163
322	194783	203	13.901423240786
322	197300	204	13.886569030783
322	198676	205	13.976111147797
322	200785	206	13.919545226588
322	202672	207	13.874104312162
322	203523	208	13.892589085719
322	206611	209	13.878606975658
322	206970	210	11.880289878053
323	178072	195	1.86614693715
323	181346	196	1.7643300615042
323	181885	197	1.8834250288666
323	185256	198	1.9077835755539
323	186303	199	2.0888794712024
323	189437	200	0.23740317929718
323	190461	201	0.049451820165849
323	193533	202	0.027516030252446
323	194783	203	-0.087029998376966
323	197300	204	-0.014854210002813
323	198676	205	0.089542117014062
323	200785	206	-0.056565921208822
323	202672	207	-0.045440914425999
323	203523	208	0.018484773556702
323	206611	209	-0.013982110060752
323	206970	210	-1.9983170976058
324	178072	195	4.132911887484
324	181346	196	4.843753606389
324	181885	197	6.0531960917786
324	185256	198	7.1391092361366
324	186303	199	8.8896366680045
324	189437	200	2.825734067737
324	190461	201	2.2012322245701
324	193533	202	2.1304264574624
324	194783	203	1.737203705563
324	197300	204	1.9775520541074
324	198676	205	2.337999437798
324	200785	206	1.8408647421005
324	202672	207	1.8740583207878
324	203523	208	2.0897654912935
324	206611	209	1.9796881535804
324	206970	210	0.973
325	181346	196	2414.846021516
325	181885	197	2411.9398519561
325	185256	198	2407.4830437775
325	186303	199	2402.7909916525
325	189437	200	2396.7894995521
325	190461	201	2389.40054502
325	193533	202	2380.7005607968
325	194783	203	2370.9825228896
325	197300	204	2361.2026109836
325	198676	205	2351.4221158228
325	200785	206	2341.7988997527
325	202672	207	2334.7780322657
325	203523	208	2336.647033939
325	206611	209	2347.3934034237
325	206970	210	2357.7429937834
326	181346	196	1578.4619548209
326	181885	197	1579.5290851165
326	185256	198	1581.2282032967
326	186303	199	1585.9806056973
326	189437	200	1592.059290397
326	190461	201	1599.5432833964
326	193533	202	1608.3551688576
326	194783	203	1618.198202448
326	197300	204	1628.1039058752
326	198676	205	1638.01020006
326	200785	206	1648.0916030407
326	202672	207	1659.7443877729
326	203523	208	1672.7368143499
326	206611	209	1681.620029645
326	206970	210	1690.9535494596
327	181885	197	3.8569490622478
327	185256	198	5.6990152858319
327	186303	199	7.4894263239327
327	189437	200	9.454161973517
327	190461	201	11.386751516064
327	193533	202	13.219922523737
327	194783	203	13.892304382734
327	197300	204	13.914960684171
327	198676	205	13.875472943818
327	200785	206	13.948346884362
327	202672	207	13.986097234099
327	203523	208	13.8974841755
327	206611	209	13.876057484688
327	206970	210	13.964163192282
328	185256	198	1.8420662235841
328	186303	199	1.7904110381007
328	189437	200	1.9647356495843
328	190461	201	1.9325895425468
328	193533	202	1.8331710076728
328	194783	203	0.67238185899745
328	197300	204	0.022656301436946
328	198676	205	-0.039487740353215
328	200785	206	0.072873940544667
328	202672	207	0.037750349736307
328	203523	208	-0.088613058598712
328	206611	209	-0.021426690812222
328	206970	210	0.088105707594659
329	185256	198	3.9320287736495
329	186303	199	4.7417031916004
329	189437	200	6.1206890622167
329	190461	201	7.0991096302214
329	193533	202	7.8016462729856
329	194783	203	4.2790123612657
329	197300	204	2.1061321516547
329	198676	205	1.8940897223921
329	200785	206	2.2785300165444
329	202672	207	2.1646657406286
329	203523	208	1.731583267388
329	206611	209	1.9545420433222
329	206970	210	2.3316849634649
330	186303	199	2414.8389636441
330	189437	200	2411.823397205
330	190461	201	2407.1004211181
330	193533	202	2402.1763357428
330	194783	203	2395.9475993091
330	197300	204	2388.4363808162
330	198676	205	2380.4217726266
330	200785	206	2372.3892768329
330	202672	207	2364.3960107766
330	203523	208	2356.3705725765
330	206611	209	2348.3631539159
330	206970	210	2340.6819414581
331	186303	199	1578.4645464355
331	189437	200	1579.5718466938
331	190461	201	1581.6157473391
331	193533	202	1586.6031674556
331	194783	203	1592.9120193589
331	197300	204	1600.5198489055
331	198676	205	1608.6375428662
331	200785	206	1616.7733545052
331	202672	207	1624.8694318254
331	203523	208	1632.9980950942
331	206611	209	1641.1085070521
331	206970	210	1649.5214835033
332	189437	200	4.1229918595192
332	190461	201	6.0085048666711
332	193533	202	7.7933465576682
332	194783	203	9.645319562198
332	197300	204	11.396671494895
332	198676	205	11.458579076235
332	200785	206	11.360564771434
332	202672	207	11.362981379842
332	203523	208	11.350148012798
332	206611	209	11.39413138482
332	206970	210	11.414123135118
333	190461	201	1.8855130071519
333	193533	202	1.7848416909971
333	194783	203	1.8519730045297
333	197300	204	1.7513519326966
333	198676	205	0.061907581340057
333	200785	206	-0.098014304800891
333	202672	207	0.0024166084080939
333	203523	208	-0.01283336704364
333	206611	209	0.043983372021467
333	206970	210	0.019991750298066
334	190461	201	4.1502055787418
334	193533	202	4.8819609857161
334	194783	203	5.9631361316342
334	197300	204	6.6067783799907
334	198676	205	1.9727047864753
334	200785	206	1.5251286177851
334	202672	207	1.8003024644694
334	203523	208	1.7575026445035
334	206611	209	1.9170827231783
334	206970	210	1.8529833544708
335	193533	202	2414.891478321
335	194783	203	2411.9976510839
335	197300	204	2407.292100154
335	198676	205	2402.2765704646
335	200785	206	2395.8739755879
335	202672	207	2388.1624939893
335	203523	208	2379.0187013419
335	206611	209	2369.2585856083
335	206970	210	2359.4972970595
336	193533	202	1578.4452633196
336	194783	203	1579.5078615788
336	197300	204	1581.4216028824
336	198676	205	1586.501643491
336	200785	206	1592.9865900455
336	202672	207	1600.7972585298
336	203523	208	1610.0586607829
336	206611	209	1619.9443134153
336	206970	210	1629.8311539469
337	194783	203	4.0036433016344
337	197300	204	5.9112786348349
337	198676	205	8.0206584836192
337	200785	206	9.9077674576243
337	202672	207	11.839172647567
337	203523	208	13.862571164626
337	206611	209	13.89433455319
337	206970	210	13.863261943356
338	197300	204	1.9076353332004
338	198676	205	2.1093798487843
338	200785	206	1.8871089740051
338	202672	207	1.931405189943
338	203523	208	2.0233985170582
338	206611	209	0.031763388564675
338	206970	210	-0.031072609834373
339	197300	204	4.1318936990439
339	198676	205	5.6219682194927
339	200785	206	6.183782872036
339	202672	207	7.3451835006711
339	203523	208	8.7847570825914
339	206611	209	2.1344147447108
339	206970	210	1.9210812431721
340	198676	205	2414.8317459705
340	200785	206	2411.6769152586
340	202672	207	2406.8626957152
340	203523	208	2401.6573820317
340	206611	209	2395.1084590736
340	206970	210	2387.1432316246
341	198676	205	1578.4671967272
341	200785	206	1579.6256340994
341	202672	207	1581.8565304214
341	203523	208	1587.1287960708
341	206611	209	1593.7619528128
341	206970	210	1601.8296308853
342	200785	206	4.2264597881998
342	202672	207	6.3259140910994
342	203523	208	8.2807440033176
342	206611	209	10.21889276863
342	206970	210	12.300975068006
343	202672	207	2.0994543028995
343	203523	208	1.9548299122183
343	206611	209	1.9381487653125
343	206970	210	2.0820822993759
344	202672	207	4.639260556635
344	203523	208	5.463091854856
344	206611	209	6.4747203350197
344	206970	210	8.0477505639166
345	203523	208	2414.8616530674
345	206611	209	2411.8609330597
345	206970	210	2407.0786536565
346	203523	208	1578.456214997
346	206611	209	1579.5580637231
346	206970	210	1581.6377947787
347	206611	209	4.1810293080615
347	206970	210	6.2036475459513
348	206970	210	2.0226182378898
349	206970	210	4.455293482944

